
 *******************************************************************************

         NASA-GLENN CHEMICAL EQUILIBRIUM PROGRAM CEA2, FEBRUARY 5, 2004
                   BY  BONNIE MCBRIDE AND SANFORD GORDON
      REFS: NASA RP-1311, PART I, 1994 AND NASA RP-1311, PART II, 1996

 *******************************************************************************



  
 ### CEA analysis performed on Mon 22-Dec-2025 03:44:55
  
 # Problem Type: "Rocket" (Finite Area Combustor)
  
 prob case = _______________9942 ro equilibrium  ions  fac
  
 !Contraction Ratio:
 ac/at=4
  
 # Pressure (10 values):
 p,atm= 10, 20, 30, 40, 50, 60, 70, 80, 90, 100
  
 # Oxidizer/Fuel Wt. ratio (29 values):
 o/f = 0.2, 0.3, 0.4, 0.5, 0.6, 0.7, 0.8, 0.9, 1, 1.1, 1.2, 1.3, 1.4, 1.5, 1.6, 1
 .7, 1.8, 1.9, 2, 2.1, 2.2, 2.3, 2.4, 2.5, 2.6, 2.7,
  
 # You selected the following fuels and oxidizers:
 reac
 fuel RP-1              wt%=100.0000
 oxid O2(L)             wt%=100.0000
  
 # You selected these options for output:
 # short version of output
 output short
 # Proportions of any products will be expressed as Mass Fractions.
 output massf
 # Heat will be expressed as siunits
 output siunits
 # Transport properties calculated
 output transport
  
  
 # Input prepared by this script:/var/www/sites/cearun/cgi-bin/CEARUN/prepareInpu
 tFile.cgi
  
 ### IMPORTANT:  The following line is the end of your CEA input file!
 end


 SINGULAR MATRIX, ITERATION  1  VARIABLE  4(EQLBRM)

  50 ITERATIONS DID NOT SATISFY CONVERGENCE
                REQUIREMENTS FOR THE POINT    4 (EQLBRM)

 TRY REMOVING CONDENSED SPECIES (EQLBRM)

  50 ITERATIONS DID NOT SATISFY CONVERGENCE
                REQUIREMENTS FOR THE POINT    4 (EQLBRM)

 CALCULATIONS STOPPED AFTER POINT  3(EQLBRM)





              THEORETICAL ROCKET PERFORMANCE ASSUMING EQUILIBRIUM

            COMPOSITION DURING EXPANSION FROM FINITE AREA COMBUSTOR

 Pin =   147.0 PSIA
 Ac/At =  4.0000      Pinj/Pinf =  1.000000
 CASE = _______________

             REACTANT                    WT FRACTION      ENERGY      TEMP
                                          (SEE NOTE)     KJ/KG-MOL      K  
 FUEL        RP-1                         1.0000000    -24717.700    298.150
 OXIDANT     O2(L)                        1.0000000    -12979.000     90.170

 O/F=    0.20000  %FUEL= 83.333333  R,EQ.RATIO=17.028331  PHI,EQ.RATIO=17.028331

                 INJECTOR  COMB END  THROAT
 Pinj/P            1.0000   1.0407   1.7934
 P, BAR            10.133   9.7365   5.6497
 T, K              973.90   971.81   924.31
 RHO, KG/CU M    2.6768 0 2.5737 0 1.5839 0
 H, KJ/KG        -1541.40 -1541.40 -1741.36
 U, KJ/KG        -1919.93 -1919.70 -2098.05
 G, KJ/KG        -11419.2 -11413.1 -11130.5
 S, KJ/(KG)(K)    10.1425  10.1580  10.1580

 M, (1/n)          21.392   21.359   21.546
 MW, MOL WT        11.253   11.235   11.229
 (dLV/dLP)t      -1.11272 -1.11290 -1.10983
 (dLV/dLT)p        2.3757   2.3804   2.3850
 Cp, KJ/(KG)(K)    9.9376   9.9814  10.0723
 GAMMAs            1.1211   1.1212   1.1212
 SON VEL,M/SEC      651.4    651.3    632.4
 MACH NUMBER        0.000    0.000    1.000

 TRANSPORT PROPERTIES (GASES ONLY)
   CONDUCTIVITY IN UNITS OF MILLIWATTS/(CM)(K)

 VISC,MILLIPOISE  0.31506  0.00000      NaN

  WITH EQUILIBRIUM REACTIONS

 Cp, KJ/(KG)(K)   17.1496   0.0000   7.8873
 CONDUCTIVITY      7.8944   0.0000      NaN
 PRANDTL NUMBER    0.6844   0.0000      NaN

  WITH FROZEN REACTIONS

 Cp, KJ/(KG)(K)    4.2870   0.0000   5.7887
 CONDUCTIVITY      2.1762   0.0000      NaN
 PRANDTL NUMBER    0.6207   0.0000      NaN

 PERFORMANCE PARAMETERS

 Ae/At                     0.00000   1.0000
 CSTAR, M/SEC               1011.6   1011.6
 CF                         0.0002   0.6252
 Ivac, M/SEC             1843648.5   1196.4
 Isp, M/SEC                    0.2    632.4


 MASS FRACTIONS

 CH4              0.23176  0.23059  0.23019
 *CO              0.05914  0.05907  0.04579
 *CO2             0.04182  0.04189  0.04376
 C2H6             0.00004  0.00004  0.00002
 *H2              0.04603  0.04632  0.04564
 H2O              0.11539  0.11538  0.12238
 C(gr)            0.50582  0.50671  0.51220

  * THERMODYNAMIC PROPERTIES FITTED TO 20000.K

 NOTE. WEIGHT FRACTION OF FUEL IN TOTAL FUELS AND OF OXIDANT IN TOTAL OXIDANTS






 SINGULAR MATRIX, ITERATION  1  VARIABLE  4(EQLBRM)

 SINGULAR MATRIX, ITERATION  1  VARIABLE  4(EQLBRM)

  50 ITERATIONS DID NOT SATISFY CONVERGENCE
                REQUIREMENTS FOR THE POINT    4 (EQLBRM)

 TRY REMOVING CONDENSED SPECIES (EQLBRM)

  50 ITERATIONS DID NOT SATISFY CONVERGENCE
                REQUIREMENTS FOR THE POINT    4 (EQLBRM)

 CALCULATIONS STOPPED AFTER POINT  3(EQLBRM)





              THEORETICAL ROCKET PERFORMANCE ASSUMING EQUILIBRIUM

            COMPOSITION DURING EXPANSION FROM FINITE AREA COMBUSTOR

 Pin =   293.9 PSIA
 Ac/At =  4.0000      Pinj/Pinf =  1.000000
 CASE = _______________

             REACTANT                    WT FRACTION      ENERGY      TEMP
                                          (SEE NOTE)     KJ/KG-MOL      K  
 FUEL        RP-1                         1.0000000    -24717.700    298.150
 OXIDANT     O2(L)                        1.0000000    -12979.000     90.170

 O/F=    0.20000  %FUEL= 83.333333  R,EQ.RATIO=17.028331  PHI,EQ.RATIO=17.028331

                 INJECTOR  COMB END  THROAT
 Pinj/P            1.0000   1.0126   1.7443
 P, BAR            20.265   20.013   11.618
 T, K             1010.65  1009.98   959.92
 RHO, KG/CU M    5.3023 0 5.2373 0 3.2225 0
 H, KJ/KG        -1541.40 -1541.40 -1743.29
 U, KJ/KG        -1923.59 -1923.53 -2103.83
 G, KJ/KG        -11523.4 -11521.5 -11228.8
 S, KJ/(KG)(K)     9.8768   9.8815   9.8815

 M, (1/n)          21.986   21.975   22.137
 MW, MOL WT        11.584   11.577   11.556
 (dLV/dLP)t      -1.10838 -1.10848 -1.10567
 (dLV/dLT)p        2.2839   2.2857   2.2935
 Cp, KJ/(KG)(K)    9.1645   9.1785   9.2855
 GAMMAs            1.1196   1.1197   1.1199
 SON VEL,M/SEC      654.2    654.1    635.4
 MACH NUMBER        0.000      NaN    1.000

 TRANSPORT PROPERTIES (GASES ONLY)
   CONDUCTIVITY IN UNITS OF MILLIWATTS/(CM)(K)

 VISC,MILLIPOISE  0.32307  0.00000      NaN

  WITH EQUILIBRIUM REACTIONS

 Cp, KJ/(KG)(K)   15.4693   0.0000   7.7133
 CONDUCTIVITY      7.4912   0.0000      NaN
 PRANDTL NUMBER    0.6671   0.0000      NaN

  WITH FROZEN REACTIONS

 Cp, KJ/(KG)(K)    4.2521   0.0000   5.6369
 CONDUCTIVITY      2.1576   0.0000      NaN
 PRANDTL NUMBER    0.6367   0.0000      NaN

 PERFORMANCE PARAMETERS

 Ae/At                     0.00000   1.0000
 CSTAR, M/SEC                989.7    989.7
 CF                            NaN   0.6421
 Ivac, M/SEC                   NaN   1202.8
 Isp, M/SEC                    NaN    635.4


 MASS FRACTIONS

 CH4              0.25203  0.25167  0.25039
 *CO              0.05980  0.05980  0.04703
 *CO2             0.04085  0.04086  0.04268
 C2H6             0.00007  0.00007  0.00004
 *H2              0.04088  0.04098  0.04055
 H2O              0.11576  0.11575  0.12247
 C(gr)            0.49060  0.49087  0.49683

  * THERMODYNAMIC PROPERTIES FITTED TO 20000.K

 NOTE. WEIGHT FRACTION OF FUEL IN TOTAL FUELS AND OF OXIDANT IN TOTAL OXIDANTS






 SINGULAR MATRIX, ITERATION  1  VARIABLE  4(EQLBRM)

 SINGULAR MATRIX, ITERATION  1  VARIABLE  4(EQLBRM)

  50 ITERATIONS DID NOT SATISFY CONVERGENCE
                REQUIREMENTS FOR THE POINT    4 (EQLBRM)

 TRY REMOVING CONDENSED SPECIES (EQLBRM)

  50 ITERATIONS DID NOT SATISFY CONVERGENCE
                REQUIREMENTS FOR THE POINT    4 (EQLBRM)

 CALCULATIONS STOPPED AFTER POINT  3(EQLBRM)





              THEORETICAL ROCKET PERFORMANCE ASSUMING EQUILIBRIUM

            COMPOSITION DURING EXPANSION FROM FINITE AREA COMBUSTOR

 Pin =   440.9 PSIA
 Ac/At =  4.0000      Pinj/Pinf =  1.000000
 CASE = _______________

             REACTANT                    WT FRACTION      ENERGY      TEMP
                                          (SEE NOTE)     KJ/KG-MOL      K  
 FUEL        RP-1                         1.0000000    -24717.700    298.150
 OXIDANT     O2(L)                        1.0000000    -12979.000     90.170

 O/F=    0.20000  %FUEL= 83.333333  R,EQ.RATIO=17.028331  PHI,EQ.RATIO=17.028331

                 INJECTOR  COMB END  THROAT
 Pinj/P            1.0000   1.0407   1.7921
 P, BAR            30.398   29.209   16.962
 T, K             1032.44  1030.29   978.91
 RHO, KG/CU M    7.9153 0 7.6093 0 4.6813 0
 H, KJ/KG        -1541.40 -1541.40 -1744.14
 U, KJ/KG        -1925.43 -1925.26 -2106.46
 G, KJ/KG        -11581.6 -11576.0 -11278.3
 S, KJ/(KG)(K)     9.7247   9.7395   9.7395

 M, (1/n)          22.353   22.316   22.464
 MW, MOL WT        11.784   11.764   11.734
 (dLV/dLP)t      -1.10497 -1.10533 -1.10271
 (dLV/dLT)p        2.2225   2.2288   2.2384
 Cp, KJ/(KG)(K)    8.7102   8.7547   8.8674
 GAMMAs            1.1185   1.1187   1.1191
 SON VEL,M/SEC      655.4    655.3    636.8
 MACH NUMBER        0.000      NaN    1.000

 TRANSPORT PROPERTIES (GASES ONLY)
   CONDUCTIVITY IN UNITS OF MILLIWATTS/(CM)(K)

 VISC,MILLIPOISE  0.32766  0.00000      NaN

  WITH EQUILIBRIUM REACTIONS

 Cp, KJ/(KG)(K)   14.5163   0.0000   7.5249
 CONDUCTIVITY      7.2379   0.0000      NaN
 PRANDTL NUMBER    0.6572   0.0000      NaN

  WITH FROZEN REACTIONS

 Cp, KJ/(KG)(K)    4.2364   0.0000   5.5648
 CONDUCTIVITY      2.1483   0.0000      NaN
 PRANDTL NUMBER    0.6461   0.0000      NaN

 PERFORMANCE PARAMETERS

 Ae/At                     0.00000   1.0000
 CSTAR, M/SEC               1019.7   1019.7
 CF                            NaN   0.6244
 Ivac, M/SEC                   NaN   1205.8
 Isp, M/SEC                    NaN    636.8


 MASS FRACTIONS

 CH4              0.26378  0.26263  0.26092
 *CO              0.05971  0.05974  0.04733
 *CO2             0.04048  0.04051  0.04227
 C2H6             0.00010  0.00010  0.00006
 *H2              0.03789  0.03818  0.03788
 H2O              0.11612  0.11607  0.12262
 C(gr)            0.48192  0.48276  0.48891

  * THERMODYNAMIC PROPERTIES FITTED TO 20000.K

 NOTE. WEIGHT FRACTION OF FUEL IN TOTAL FUELS AND OF OXIDANT IN TOTAL OXIDANTS






 SINGULAR MATRIX, ITERATION  1  VARIABLE  4(EQLBRM)

 SINGULAR MATRIX, ITERATION  1  VARIABLE  4(EQLBRM)

  50 ITERATIONS DID NOT SATISFY CONVERGENCE
                REQUIREMENTS FOR THE POINT    4 (EQLBRM)

 TRY REMOVING CONDENSED SPECIES (EQLBRM)

  50 ITERATIONS DID NOT SATISFY CONVERGENCE
                REQUIREMENTS FOR THE POINT    4 (EQLBRM)

 CALCULATIONS STOPPED AFTER POINT  3(EQLBRM)





              THEORETICAL ROCKET PERFORMANCE ASSUMING EQUILIBRIUM

            COMPOSITION DURING EXPANSION FROM FINITE AREA COMBUSTOR

 Pin =   587.8 PSIA
 Ac/At =  4.0000      Pinj/Pinf =  1.000000
 CASE = _______________

             REACTANT                    WT FRACTION      ENERGY      TEMP
                                          (SEE NOTE)     KJ/KG-MOL      K  
 FUEL        RP-1                         1.0000000    -24717.700    298.150
 OXIDANT     O2(L)                        1.0000000    -12979.000     90.170

 O/F=    0.20000  %FUEL= 83.333333  R,EQ.RATIO=17.028331  PHI,EQ.RATIO=17.028331

                 INJECTOR  COMB END  THROAT
 Pinj/P            1.0000   1.0407   1.7917
 P, BAR            40.530   38.946   22.621
 T, K             1047.96  1045.81   993.44
 RHO, KG/CU M    1.0522 1 1.0115 1 6.2219 0
 H, KJ/KG        -1541.40 -1541.40 -1744.70
 U, KJ/KG        -1926.60 -1926.44 -2108.28
 G, KJ/KG        -11621.0 -11615.7 -11314.5
 S, KJ/(KG)(K)     9.6183   9.6330   9.6330

 M, (1/n)          22.620   22.583   22.719
 MW, MOL WT        11.929   11.909   11.872
 (dLV/dLP)t      -1.10217 -1.10257 -1.10013
 (dLV/dLT)p        2.1760   2.1826   2.1936
 Cp, KJ/(KG)(K)    8.3907   8.4348   8.5502
 GAMMAs            1.1176   1.1178   1.1184
 SON VEL,M/SEC      656.1    656.0    637.7
 MACH NUMBER        0.000    0.001    1.000

 TRANSPORT PROPERTIES (GASES ONLY)
   CONDUCTIVITY IN UNITS OF MILLIWATTS/(CM)(K)

 VISC,MILLIPOISE  0.33087  0.00000      NaN

  WITH EQUILIBRIUM REACTIONS

 Cp, KJ/(KG)(K)   13.8579   0.0000   7.5559
 CONDUCTIVITY      7.0514   0.0000      NaN
 PRANDTL NUMBER    0.6503   0.0000      NaN

  WITH FROZEN REACTIONS

 Cp, KJ/(KG)(K)    4.2274   0.0000   5.4979
 CONDUCTIVITY      2.1427   0.0000      NaN
 PRANDTL NUMBER    0.6528   0.0000      NaN

 PERFORMANCE PARAMETERS

 Ae/At                     0.00000   1.0000
 CSTAR, M/SEC               1021.6   1021.6
 CF                         0.0007   0.6242
 Ivac, M/SEC              556145.2   1207.8
 Isp, M/SEC                    0.7    637.7


 MASS FRACTIONS

 CH4              0.27201  0.27087  0.26886
 *CO              0.05942  0.05947  0.04737
 *CO2             0.04032  0.04034  0.04203
 C2H4             0.00001  0.00001  0.00000
 C2H6             0.00013  0.00012  0.00008
 *H2              0.03578  0.03607  0.03587
 H2O              0.11644  0.11639  0.12279
 C(gr)            0.47591  0.47673  0.48300

  * THERMODYNAMIC PROPERTIES FITTED TO 20000.K

 NOTE. WEIGHT FRACTION OF FUEL IN TOTAL FUELS AND OF OXIDANT IN TOTAL OXIDANTS






 SINGULAR MATRIX, ITERATION  1  VARIABLE  4(EQLBRM)

 SINGULAR MATRIX, ITERATION  1  VARIABLE  4(EQLBRM)

  50 ITERATIONS DID NOT SATISFY CONVERGENCE
                REQUIREMENTS FOR THE POINT    4 (EQLBRM)

 TRY REMOVING CONDENSED SPECIES (EQLBRM)

  50 ITERATIONS DID NOT SATISFY CONVERGENCE
                REQUIREMENTS FOR THE POINT    4 (EQLBRM)

 CALCULATIONS STOPPED AFTER POINT  3(EQLBRM)





              THEORETICAL ROCKET PERFORMANCE ASSUMING EQUILIBRIUM

            COMPOSITION DURING EXPANSION FROM FINITE AREA COMBUSTOR

 Pin =   734.8 PSIA
 Ac/At =  4.0000      Pinj/Pinf =  1.000000
 CASE = _______________

             REACTANT                    WT FRACTION      ENERGY      TEMP
                                          (SEE NOTE)     KJ/KG-MOL      K  
 FUEL        RP-1                         1.0000000    -24717.700    298.150
 OXIDANT     O2(L)                        1.0000000    -12979.000     90.170

 O/F=    0.20000  %FUEL= 83.333333  R,EQ.RATIO=17.028331  PHI,EQ.RATIO=17.028331

                 INJECTOR  COMB END  THROAT
 Pinj/P            1.0000   1.0407   1.7913
 P, BAR            50.663   48.682   28.283
 T, K             1060.01  1057.86  1004.74
 RHO, KG/CU M    1.3125 1 1.2616 1 7.7598 0
 H, KJ/KG        -1541.40 -1541.40 -1745.09
 U, KJ/KG        -1927.41 -1927.27 -2109.57
 G, KJ/KG        -11650.4 -11645.2 -11341.5
 S, KJ/(KG)(K)     9.5367   9.5512   9.5512

 M, (1/n)          22.832   22.794   22.920
 MW, MOL WT        12.042   12.022   11.981
 (dLV/dLP)t      -1.09980 -1.10023 -1.09793
 (dLV/dLT)p        2.1385   2.1453   2.1574
 Cp, KJ/(KG)(K)    8.1459   8.1894   8.3061
 GAMMAs            1.1169   1.1170   1.1177
 SON VEL,M/SEC      656.6    656.5    638.3
 MACH NUMBER        0.000    0.001    1.000

 TRANSPORT PROPERTIES (GASES ONLY)
   CONDUCTIVITY IN UNITS OF MILLIWATTS/(CM)(K)

 VISC,MILLIPOISE  0.33333  0.00000      NaN

  WITH EQUILIBRIUM REACTIONS

 Cp, KJ/(KG)(K)   13.3590   0.0000   7.6601
 CONDUCTIVITY      6.9034   0.0000      NaN
 PRANDTL NUMBER    0.6450   0.0000      NaN

  WITH FROZEN REACTIONS

 Cp, KJ/(KG)(K)    4.2217   0.0000   5.4124
 CONDUCTIVITY      2.1389   0.0000      NaN
 PRANDTL NUMBER    0.6579   0.0000      NaN

 PERFORMANCE PARAMETERS

 Ae/At                     0.00000   1.0000
 CSTAR, M/SEC               1022.9   1022.9
 CF                         0.0007   0.6240
 Ivac, M/SEC              533023.4   1209.3
 Isp, M/SEC                    0.7    638.3


 MASS FRACTIONS

 CH4              0.27831  0.27719  0.27495
 *CO              0.05905  0.05912  0.04730
 *CO2             0.04024  0.04025  0.04189
 C2H4             0.00001  0.00001  0.00000
 C2H6             0.00016  0.00015  0.00010
 *H2              0.03415  0.03444  0.03431
 H2O              0.11674  0.11669  0.12295
 C(gr)            0.47134  0.47215  0.47850

  * THERMODYNAMIC PROPERTIES FITTED TO 20000.K

 NOTE. WEIGHT FRACTION OF FUEL IN TOTAL FUELS AND OF OXIDANT IN TOTAL OXIDANTS






 SINGULAR MATRIX, ITERATION  1  VARIABLE  4(EQLBRM)

 SINGULAR MATRIX, ITERATION  1  VARIABLE  4(EQLBRM)

  50 ITERATIONS DID NOT SATISFY CONVERGENCE
                REQUIREMENTS FOR THE POINT    4 (EQLBRM)

 TRY REMOVING CONDENSED SPECIES (EQLBRM)

  50 ITERATIONS DID NOT SATISFY CONVERGENCE
                REQUIREMENTS FOR THE POINT    4 (EQLBRM)

 CALCULATIONS STOPPED AFTER POINT  3(EQLBRM)





              THEORETICAL ROCKET PERFORMANCE ASSUMING EQUILIBRIUM

            COMPOSITION DURING EXPANSION FROM FINITE AREA COMBUSTOR

 Pin =   881.8 PSIA
 Ac/At =  4.0000      Pinj/Pinf =  1.000000
 CASE = _______________

             REACTANT                    WT FRACTION      ENERGY      TEMP
                                          (SEE NOTE)     KJ/KG-MOL      K  
 FUEL        RP-1                         1.0000000    -24717.700    298.150
 OXIDANT     O2(L)                        1.0000000    -12979.000     90.170

 O/F=    0.20000  %FUEL= 83.333333  R,EQ.RATIO=17.028331  PHI,EQ.RATIO=17.028331

                 INJECTOR  COMB END  THROAT
 Pinj/P            1.0000   1.0407   1.7909
 P, BAR            60.795   58.419   33.946
 T, K             1069.84  1067.69  1013.97
 RHO, KG/CU M    1.5725 1 1.5115 1 9.2960 0
 H, KJ/KG        -1541.40 -1541.40 -1745.38
 U, KJ/KG        -1928.02 -1927.89 -2110.55
 G, KJ/KG        -11673.3 -11668.4 -11362.8
 S, KJ/(KG)(K)     9.4705   9.4849   9.4849

 M, (1/n)          23.007   22.969   23.087
 MW, MOL WT        12.135   12.115   12.070
 (dLV/dLP)t      -1.09773 -1.09819 -1.09602
 (dLV/dLT)p        2.1070   2.1140   2.1269
 Cp, KJ/(KG)(K)    7.9485   7.9914   8.1083
 GAMMAs            1.1162   1.1164   1.1172
 SON VEL,M/SEC      656.9    656.9    638.7
 MACH NUMBER        0.000    0.001    1.000

 TRANSPORT PROPERTIES (GASES ONLY)
   CONDUCTIVITY IN UNITS OF MILLIWATTS/(CM)(K)

 VISC,MILLIPOISE  0.33530  0.00000      NaN

  WITH EQUILIBRIUM REACTIONS

 Cp, KJ/(KG)(K)   12.9595   0.0000   7.4217
 CONDUCTIVITY      6.7806   0.0000      NaN
 PRANDTL NUMBER    0.6409   0.0000      NaN

  WITH FROZEN REACTIONS

 Cp, KJ/(KG)(K)    4.2179   0.0000   7.3114
 CONDUCTIVITY      2.1361   0.0000      NaN
 PRANDTL NUMBER    0.6621   0.0000      NaN

 PERFORMANCE PARAMETERS

 Ae/At                     0.00000   1.0000
 CSTAR, M/SEC               1023.9   1023.9
 CF                         0.0007   0.6238
 Ivac, M/SEC              508289.3   1210.4
 Isp, M/SEC                    0.8    638.7


 MASS FRACTIONS

 *C               0.00000  0.00000  0.00024
 CH4              0.28340  0.28229  0.27988
 *CO              0.05865  0.05874  0.04715
 *CO2             0.04021  0.04022  0.04180
 C2H4             0.00001  0.00001  0.00000
 C2H6             0.00018  0.00017  0.00011
 *H2              0.03284  0.03312  0.03305
 H2O              0.11702  0.11696  0.12311
 *O               0.00000  0.00000  0.00010
 C(gr)            0.46769  0.46848  0.47488

  * THERMODYNAMIC PROPERTIES FITTED TO 20000.K

 NOTE. WEIGHT FRACTION OF FUEL IN TOTAL FUELS AND OF OXIDANT IN TOTAL OXIDANTS






 SINGULAR MATRIX, ITERATION  1  VARIABLE  4(EQLBRM)

 SINGULAR MATRIX, ITERATION  1  VARIABLE  4(EQLBRM)

  50 ITERATIONS DID NOT SATISFY CONVERGENCE
                REQUIREMENTS FOR THE POINT    4 (EQLBRM)

 TRY REMOVING CONDENSED SPECIES (EQLBRM)

  50 ITERATIONS DID NOT SATISFY CONVERGENCE
                REQUIREMENTS FOR THE POINT    4 (EQLBRM)

 CALCULATIONS STOPPED AFTER POINT  3(EQLBRM)





              THEORETICAL ROCKET PERFORMANCE ASSUMING EQUILIBRIUM

            COMPOSITION DURING EXPANSION FROM FINITE AREA COMBUSTOR

 Pin =  1028.7 PSIA
 Ac/At =  4.0000      Pinj/Pinf =  1.000000
 CASE = _______________

             REACTANT                    WT FRACTION      ENERGY      TEMP
                                          (SEE NOTE)     KJ/KG-MOL      K  
 FUEL        RP-1                         1.0000000    -24717.700    298.150
 OXIDANT     O2(L)                        1.0000000    -12979.000     90.170

 O/F=    0.20000  %FUEL= 83.333333  R,EQ.RATIO=17.028331  PHI,EQ.RATIO=17.028331

                 INJECTOR  COMB END  THROAT
 Pinj/P            1.0000   1.0407   1.7906
 P, BAR            70.927   68.155   39.610
 T, K             1078.13  1075.98  1021.77
 RHO, KG/CU M    1.8323 1 1.7612 1 1.0831 1
 H, KJ/KG        -1541.40 -1541.40 -1745.60
 U, KJ/KG        -1928.50 -1928.38 -2111.32
 G, KJ/KG        -11692.0 -11687.2 -11380.2
 S, KJ/(KG)(K)     9.4150   9.4293   9.4293

 M, (1/n)          23.157   23.118   23.230
 MW, MOL WT        12.214   12.194   12.145
 (dLV/dLP)t      -1.09591 -1.09639 -1.09433
 (dLV/dLT)p        2.0799   2.0870   2.1006
 Cp, KJ/(KG)(K)    7.7836   7.8261   7.9427
 GAMMAs            1.1156   1.1158   1.1167
 SON VEL,M/SEC      657.2    657.1    639.1
 MACH NUMBER        0.000    0.001    1.000

 TRANSPORT PROPERTIES (GASES ONLY)
   CONDUCTIVITY IN UNITS OF MILLIWATTS/(CM)(K)

 VISC,MILLIPOISE  0.33696  0.00000      NaN

  WITH EQUILIBRIUM REACTIONS

 Cp, KJ/(KG)(K)   12.6280   0.0000   8.9079
 CONDUCTIVITY      6.6755   0.0000      NaN
 PRANDTL NUMBER    0.6374   0.0000      NaN

  WITH FROZEN REACTIONS

 Cp, KJ/(KG)(K)    4.2151   0.0000   4.8507
 CONDUCTIVITY      2.1340   0.0000      NaN
 PRANDTL NUMBER    0.6656   0.0000      NaN

 PERFORMANCE PARAMETERS

 Ae/At                     0.00000   1.0000
 CSTAR, M/SEC               1024.7   1024.7
 CF                         0.0008   0.6236
 Ivac, M/SEC              484720.8   1211.3
 Isp, M/SEC                    0.8    639.1


 MASS FRACTIONS

 CH4              0.28765  0.28655  0.28401
 *CO              0.05825  0.05836  0.04698
 *CO2             0.04022  0.04021  0.04175
 C2H4             0.00001  0.00001  0.00000
 C2H6             0.00021  0.00020  0.00013
 *H2              0.03174  0.03202  0.03200
 H2O              0.11728  0.11721  0.12326
 C(gr)            0.46466  0.46544  0.47186

  * THERMODYNAMIC PROPERTIES FITTED TO 20000.K

 NOTE. WEIGHT FRACTION OF FUEL IN TOTAL FUELS AND OF OXIDANT IN TOTAL OXIDANTS






 SINGULAR MATRIX, ITERATION  1  VARIABLE  4(EQLBRM)

 SINGULAR MATRIX, ITERATION  1  VARIABLE  4(EQLBRM)

  50 ITERATIONS DID NOT SATISFY CONVERGENCE
                REQUIREMENTS FOR THE POINT    4 (EQLBRM)

 TRY REMOVING CONDENSED SPECIES (EQLBRM)

  50 ITERATIONS DID NOT SATISFY CONVERGENCE
                REQUIREMENTS FOR THE POINT    4 (EQLBRM)

 CALCULATIONS STOPPED AFTER POINT  3(EQLBRM)





              THEORETICAL ROCKET PERFORMANCE ASSUMING EQUILIBRIUM

            COMPOSITION DURING EXPANSION FROM FINITE AREA COMBUSTOR

 Pin =  1175.7 PSIA
 Ac/At =  4.0000      Pinj/Pinf =  1.000000
 CASE = _______________

             REACTANT                    WT FRACTION      ENERGY      TEMP
                                          (SEE NOTE)     KJ/KG-MOL      K  
 FUEL        RP-1                         1.0000000    -24717.700    298.150
 OXIDANT     O2(L)                        1.0000000    -12979.000     90.170

 O/F=    0.20000  %FUEL= 83.333333  R,EQ.RATIO=17.028331  PHI,EQ.RATIO=17.028331

                 INJECTOR  COMB END  THROAT
 Pinj/P            1.0000   1.0407   1.7904
 P, BAR            81.060   77.892   45.276
 T, K             1085.29  1083.15  1028.51
 RHO, KG/CU M    2.0919 1 2.0108 1 1.2365 1
 H, KJ/KG        -1541.40 -1541.40 -1745.77
 U, KJ/KG        -1928.89 -1928.77 -2111.94
 G, KJ/KG        -11707.5 -11702.9 -11394.7
 S, KJ/(KG)(K)     9.3672   9.3814   9.3814

 M, (1/n)          23.288   23.249   23.354
 MW, MOL WT        12.283   12.263   12.211
 (dLV/dLP)t      -1.09428 -1.09477 -1.09281
 (dLV/dLT)p        2.0561   2.0632   2.0774
 Cp, KJ/(KG)(K)    7.6426   7.6845   7.8007
 GAMMAs            1.1151   1.1153   1.1163
 SON VEL,M/SEC      657.3    657.3    639.3
 MACH NUMBER        0.000    0.001    1.000

 TRANSPORT PROPERTIES (GASES ONLY)
   CONDUCTIVITY IN UNITS OF MILLIWATTS/(CM)(K)

 VISC,MILLIPOISE  0.33837  0.00000      NaN

  WITH EQUILIBRIUM REACTIONS

 Cp, KJ/(KG)(K)   12.3455   0.0000  11.4383
 CONDUCTIVITY      6.5837   0.0000      NaN
 PRANDTL NUMBER    0.6345   0.0000      NaN

  WITH FROZEN REACTIONS

 Cp, KJ/(KG)(K)    4.2131   0.0000   4.3086
 CONDUCTIVITY      2.1324   0.0000      NaN
 PRANDTL NUMBER    0.6685   0.0000      NaN

 PERFORMANCE PARAMETERS

 Ae/At                     0.00000   1.0000
 CSTAR, M/SEC               1025.4   1025.4
 CF                         0.0008   0.6235
 Ivac, M/SEC              463032.3   1212.1
 Isp, M/SEC                    0.8    639.3


 MASS FRACTIONS

 CH4              0.29129  0.29021  0.28756
 *CO              0.05785  0.05798  0.04679
 *CO2             0.04024  0.04023  0.04172
 C2H4             0.00001  0.00001  0.00000
 C2H6             0.00023  0.00022  0.00014
 *H2              0.03079  0.03107  0.03109
 H2O              0.11751  0.11744  0.12341
 C(gr)            0.46208  0.46284  0.46929

  * THERMODYNAMIC PROPERTIES FITTED TO 20000.K

 NOTE. WEIGHT FRACTION OF FUEL IN TOTAL FUELS AND OF OXIDANT IN TOTAL OXIDANTS






 SINGULAR MATRIX, ITERATION  1  VARIABLE  4(EQLBRM)

 SINGULAR MATRIX, ITERATION  1  VARIABLE  4(EQLBRM)

  50 ITERATIONS DID NOT SATISFY CONVERGENCE
                REQUIREMENTS FOR THE POINT    4 (EQLBRM)

 TRY REMOVING CONDENSED SPECIES (EQLBRM)

  50 ITERATIONS DID NOT SATISFY CONVERGENCE
                REQUIREMENTS FOR THE POINT    4 (EQLBRM)

 CALCULATIONS STOPPED AFTER POINT  3(EQLBRM)





              THEORETICAL ROCKET PERFORMANCE ASSUMING EQUILIBRIUM

            COMPOSITION DURING EXPANSION FROM FINITE AREA COMBUSTOR

 Pin =  1322.6 PSIA
 Ac/At =  4.0000      Pinj/Pinf =  1.000000
 CASE = _______________

             REACTANT                    WT FRACTION      ENERGY      TEMP
                                          (SEE NOTE)     KJ/KG-MOL      K  
 FUEL        RP-1                         1.0000000    -24717.700    298.150
 OXIDANT     O2(L)                        1.0000000    -12979.000     90.170

 O/F=    0.20000  %FUEL= 83.333333  R,EQ.RATIO=17.028331  PHI,EQ.RATIO=17.028331

                 INJECTOR  COMB END  THROAT
 Pinj/P            1.0000   1.0407   1.7901
 P, BAR            91.192   87.628   50.942
 T, K             1091.59  1089.46  1034.45
 RHO, KG/CU M    2.3515 1 2.2602 1 1.3898 1
 H, KJ/KG        -1541.40 -1541.40 -1745.91
 U, KJ/KG        -1929.20 -1929.10 -2112.46
 G, KJ/KG        -11720.7 -11716.3 -11407.1
 S, KJ/(KG)(K)     9.3252   9.3394   9.3394

 M, (1/n)          23.404   23.364   23.465
 MW, MOL WT        12.344   12.323   12.269
 (dLV/dLP)t      -1.09279 -1.09330 -1.09142
 (dLV/dLT)p        2.0349   2.0421   2.0567
 Cp, KJ/(KG)(K)    7.5196   7.5611   7.6766
 GAMMAs            1.1146   1.1148   1.1159
 SON VEL,M/SEC      657.5    657.4    639.5
 MACH NUMBER        0.000    0.001    1.000

 TRANSPORT PROPERTIES (GASES ONLY)
   CONDUCTIVITY IN UNITS OF MILLIWATTS/(CM)(K)

 VISC,MILLIPOISE  0.33961  0.00000      NaN

  WITH EQUILIBRIUM REACTIONS

 Cp, KJ/(KG)(K)   12.1001   0.0000   7.2082
 CONDUCTIVITY      6.5021   0.0000      NaN
 PRANDTL NUMBER    0.6320   0.0000      NaN

  WITH FROZEN REACTIONS

 Cp, KJ/(KG)(K)    4.2116   0.0000   6.9998
 CONDUCTIVITY      2.1312   0.0000      NaN
 PRANDTL NUMBER    0.6711   0.0000      NaN

 PERFORMANCE PARAMETERS

 Ae/At                     0.00000   1.0000
 CSTAR, M/SEC               1026.0   1026.0
 CF                         0.0009   0.6233
 Ivac, M/SEC              443272.3   1212.7
 Isp, M/SEC                    0.9    639.5


 MASS FRACTIONS

 *e-              0.00000  0.00000  0.00001
 *C               0.00000  0.00000  0.00005
 CH4              0.29447  0.29340  0.29065
 *CO              0.05746  0.05760  0.04659
 *CO2             0.04027  0.04026  0.04171
 C2H4             0.00001  0.00001  0.00001
 C2H6             0.00025  0.00024  0.00016
 *H2              0.02996  0.03024  0.03029
 H2O              0.11774  0.11766  0.12355
 *O               0.00000  0.00000  0.00002
 C(gr)            0.45983  0.46059  0.46704

  * THERMODYNAMIC PROPERTIES FITTED TO 20000.K

 NOTE. WEIGHT FRACTION OF FUEL IN TOTAL FUELS AND OF OXIDANT IN TOTAL OXIDANTS






 SINGULAR MATRIX, ITERATION  1  VARIABLE  4(EQLBRM)

 SINGULAR MATRIX, ITERATION  1  VARIABLE  4(EQLBRM)

  50 ITERATIONS DID NOT SATISFY CONVERGENCE
                REQUIREMENTS FOR THE POINT    4 (EQLBRM)

 TRY REMOVING CONDENSED SPECIES (EQLBRM)

  50 ITERATIONS DID NOT SATISFY CONVERGENCE
                REQUIREMENTS FOR THE POINT    4 (EQLBRM)

 CALCULATIONS STOPPED AFTER POINT  3(EQLBRM)





              THEORETICAL ROCKET PERFORMANCE ASSUMING EQUILIBRIUM

            COMPOSITION DURING EXPANSION FROM FINITE AREA COMBUSTOR

 Pin =  1469.6 PSIA
 Ac/At =  4.0000      Pinj/Pinf =  1.000000
 CASE = _______________

             REACTANT                    WT FRACTION      ENERGY      TEMP
                                          (SEE NOTE)     KJ/KG-MOL      K  
 FUEL        RP-1                         1.0000000    -24717.700    298.150
 OXIDANT     O2(L)                        1.0000000    -12979.000     90.170

 O/F=    0.20000  %FUEL= 83.333333  R,EQ.RATIO=17.028331  PHI,EQ.RATIO=17.028331

                 INJECTOR  COMB END  THROAT
 Pinj/P            1.0000   1.0407   1.7899
 P, BAR            101.33   97.365   56.610
 T, K             1097.20  1095.08  1039.75
 RHO, KG/CU M    2.6110 1 2.5096 1 1.5430 1
 H, KJ/KG        -1541.40 -1541.40 -1746.03
 U, KJ/KG        -1929.47 -1929.37 -2112.90
 G, KJ/KG        -11732.1 -11727.8 -11417.8
 S, KJ/(KG)(K)     9.2879   9.3020   9.3020

 M, (1/n)          23.508   23.468   23.564
 MW, MOL WT        12.398   12.377   12.322
 (dLV/dLP)t      -1.09143 -1.09195 -1.09015
 (dLV/dLT)p        2.0157   2.0230   2.0381
 Cp, KJ/(KG)(K)    7.4109   7.4519   7.5667
 GAMMAs            1.1142   1.1144   1.1155
 SON VEL,M/SEC      657.6    657.5    639.7
 MACH NUMBER        0.000    0.001    1.000

 TRANSPORT PROPERTIES (GASES ONLY)
   CONDUCTIVITY IN UNITS OF MILLIWATTS/(CM)(K)

 VISC,MILLIPOISE  0.34070  0.00000      NaN

  WITH EQUILIBRIUM REACTIONS

 Cp, KJ/(KG)(K)   11.8838   0.0000  11.1513
 CONDUCTIVITY      6.4288   0.0000      NaN
 PRANDTL NUMBER    0.6298   0.0000      NaN

  WITH FROZEN REACTIONS

 Cp, KJ/(KG)(K)    4.2105   0.0000   4.2903
 CONDUCTIVITY      2.1302   0.0000      NaN
 PRANDTL NUMBER    0.6734   0.0000      NaN

 PERFORMANCE PARAMETERS

 Ae/At                     0.00000   1.0000
 CSTAR, M/SEC               1026.5   1026.5
 CF                         0.0009   0.6232
 Ivac, M/SEC              425326.2   1213.2
 Isp, M/SEC                    0.9    639.7


 MASS FRACTIONS

 CH4              0.29728  0.29622  0.29340
 *CO              0.05709  0.05723  0.04638
 *CO2             0.04031  0.04029  0.04171
 C2H4             0.00001  0.00001  0.00001
 C2H6             0.00027  0.00027  0.00017
 *H2              0.02922  0.02950  0.02958
 H2O              0.11795  0.11787  0.12369
 C(gr)            0.45786  0.45860  0.46506

  * THERMODYNAMIC PROPERTIES FITTED TO 20000.K

 NOTE. WEIGHT FRACTION OF FUEL IN TOTAL FUELS AND OF OXIDANT IN TOTAL OXIDANTS






 SINGULAR MATRIX, ITERATION  1  VARIABLE  4(EQLBRM)

 SINGULAR MATRIX, ITERATION  1  VARIABLE  4(EQLBRM)

  50 ITERATIONS DID NOT SATISFY CONVERGENCE
                REQUIREMENTS FOR THE POINT    4 (EQLBRM)

 TRY REMOVING CONDENSED SPECIES (EQLBRM)

  50 ITERATIONS DID NOT SATISFY CONVERGENCE
                REQUIREMENTS FOR THE POINT    4 (EQLBRM)

 CALCULATIONS STOPPED AFTER POINT  3(EQLBRM)





              THEORETICAL ROCKET PERFORMANCE ASSUMING EQUILIBRIUM

            COMPOSITION DURING EXPANSION FROM FINITE AREA COMBUSTOR

 Pin =   147.0 PSIA
 Ac/At =  4.0000      Pinj/Pinf =  1.000000
 CASE = _______________

             REACTANT                    WT FRACTION      ENERGY      TEMP
                                          (SEE NOTE)     KJ/KG-MOL      K  
 FUEL        RP-1                         1.0000000    -24717.700    298.150
 OXIDANT     O2(L)                        1.0000000    -12979.000     90.170

 O/F=    0.30000  %FUEL= 76.923077  R,EQ.RATIO=11.352221  PHI,EQ.RATIO=11.352221

                 INJECTOR  COMB END  THROAT
 Pinj/P            1.0000   1.0407   1.7944
 P, BAR            10.133   9.7365   5.6468
 T, K             1047.84  1045.50   994.65
 RHO, KG/CU M    2.2730 0 2.1858 0 1.3463 0
 H, KJ/KG        -1454.03 -1454.03 -1689.53
 U, KJ/KG        -1899.80 -1899.47 -2108.95
 G, KJ/KG        -12803.3 -12795.7 -12479.5
 S, KJ/(KG)(K)    10.8310  10.8480  10.8480

 M, (1/n)          19.544   19.515   19.717
 MW, MOL WT        11.156   11.138   11.090
 (dLV/dLP)t      -1.12260 -1.12248 -1.12002
 (dLV/dLT)p        2.5148   2.5168   2.5441
 Cp, KJ/(KG)(K)   11.4919  11.5338  11.8930
 GAMMAs            1.1255   1.1255   1.1229
 SON VEL,M/SEC      708.3    708.1    686.3
 MACH NUMBER        0.000    0.000    1.000

 TRANSPORT PROPERTIES (GASES ONLY)
   CONDUCTIVITY IN UNITS OF MILLIWATTS/(CM)(K)

 VISC,MILLIPOISE  0.35383  0.00000      NaN

  WITH EQUILIBRIUM REACTIONS

 Cp, KJ/(KG)(K)   19.7939   0.0000   8.8153
 CONDUCTIVITY     10.1415   0.0000      NaN
 PRANDTL NUMBER    0.6906   0.0000      NaN

  WITH FROZEN REACTIONS

 Cp, KJ/(KG)(K)    3.9167   0.0000   4.8075
 CONDUCTIVITY      2.4127   0.0000      NaN
 PRANDTL NUMBER    0.5744   0.0000      NaN

 PERFORMANCE PARAMETERS

 Ae/At                     0.00000   1.0000
 CSTAR, M/SEC               1096.7   1096.7
 CF                         0.0001   0.6258
 Ivac, M/SEC             2765229.4   1297.4
 Isp, M/SEC                    0.2    686.3


 MASS FRACTIONS

 CH4              0.15288  0.15171  0.14865
 *CO              0.15783  0.15784  0.13270
 *CO2             0.06159  0.06174  0.06968
 C2H6             0.00003  0.00002  0.00002
 *H2              0.05768  0.05798  0.05767
 H2O              0.10791  0.10779  0.11745
 C(gr)            0.46208  0.46292  0.47383

  * THERMODYNAMIC PROPERTIES FITTED TO 20000.K

 NOTE. WEIGHT FRACTION OF FUEL IN TOTAL FUELS AND OF OXIDANT IN TOTAL OXIDANTS






 SINGULAR MATRIX, ITERATION  1  VARIABLE  4(EQLBRM)

 SINGULAR MATRIX, ITERATION  1  VARIABLE  4(EQLBRM)

  50 ITERATIONS DID NOT SATISFY CONVERGENCE
                REQUIREMENTS FOR THE POINT    4 (EQLBRM)

 TRY REMOVING CONDENSED SPECIES (EQLBRM)

  50 ITERATIONS DID NOT SATISFY CONVERGENCE
                REQUIREMENTS FOR THE POINT    4 (EQLBRM)

 CALCULATIONS STOPPED AFTER POINT  3(EQLBRM)





              THEORETICAL ROCKET PERFORMANCE ASSUMING EQUILIBRIUM

            COMPOSITION DURING EXPANSION FROM FINITE AREA COMBUSTOR

 Pin =   293.9 PSIA
 Ac/At =  4.0000      Pinj/Pinf =  1.000000
 CASE = _______________

             REACTANT                    WT FRACTION      ENERGY      TEMP
                                          (SEE NOTE)     KJ/KG-MOL      K  
 FUEL        RP-1                         1.0000000    -24717.700    298.150
 OXIDANT     O2(L)                        1.0000000    -12979.000     90.170

 O/F=    0.30000  %FUEL= 76.923077  R,EQ.RATIO=11.352221  PHI,EQ.RATIO=11.352221

                 INJECTOR  COMB END  THROAT
 Pinj/P            1.0000   1.0407   1.7945
 P, BAR            20.265   19.473   11.293
 T, K             1089.60  1087.14  1033.10
 RHO, KG/CU M    4.4917 0 4.3190 0 2.6601 0
 H, KJ/KG        -1454.03 -1454.03 -1692.43
 U, KJ/KG        -1905.20 -1904.90 -2116.96
 G, KJ/KG        -12938.5 -12930.5 -12598.5
 S, KJ/(KG)(K)    10.5401  10.5566  10.5566

 M, (1/n)          20.080   20.048   20.233
 MW, MOL WT        11.488   11.468   11.407
 (dLV/dLP)t      -1.12334 -1.12336 -1.12111
 (dLV/dLT)p        2.4665   2.4700   2.5021
 Cp, KJ/(KG)(K)   10.7321  10.7772  11.1508
 GAMMAs            1.1254   1.1254   1.1231
 SON VEL,M/SEC      712.5    712.3    690.5
 MACH NUMBER        0.000    0.000    1.000

 TRANSPORT PROPERTIES (GASES ONLY)
   CONDUCTIVITY IN UNITS OF MILLIWATTS/(CM)(K)

 VISC,MILLIPOISE  0.36294  0.00000      NaN

  WITH EQUILIBRIUM REACTIONS

 Cp, KJ/(KG)(K)   17.9237   0.0000   8.6800
 CONDUCTIVITY      9.6995   0.0000      NaN
 PRANDTL NUMBER    0.6707   0.0000      NaN

  WITH FROZEN REACTIONS

 Cp, KJ/(KG)(K)    3.8939   0.0000   4.7409
 CONDUCTIVITY      2.3928   0.0000      NaN
 PRANDTL NUMBER    0.5906   0.0000      NaN

 PERFORMANCE PARAMETERS

 Ae/At                     0.00000   1.0000
 CSTAR, M/SEC               1103.3   1103.3
 CF                         0.0000   0.6258
 Ivac, M/SEC             *********   1305.3
 Isp, M/SEC                    0.0    690.5


 MASS FRACTIONS

 CH4              0.17364  0.17244  0.16869
 *CO              0.15724  0.15730  0.13325
 *CO2             0.05948  0.05958  0.06693
 C2H4             0.00001  0.00001  0.00000
 C2H6             0.00005  0.00005  0.00003
 *H2              0.05222  0.05253  0.05242
 H2O              0.11002  0.10989  0.11934
 C(gr)            0.44735  0.44820  0.45932

  * THERMODYNAMIC PROPERTIES FITTED TO 20000.K

 NOTE. WEIGHT FRACTION OF FUEL IN TOTAL FUELS AND OF OXIDANT IN TOTAL OXIDANTS






 SINGULAR MATRIX, ITERATION  1  VARIABLE  4(EQLBRM)

 SINGULAR MATRIX, ITERATION  1  VARIABLE  4(EQLBRM)

  50 ITERATIONS DID NOT SATISFY CONVERGENCE
                REQUIREMENTS FOR THE POINT    4 (EQLBRM)

 TRY REMOVING CONDENSED SPECIES (EQLBRM)

  50 ITERATIONS DID NOT SATISFY CONVERGENCE
                REQUIREMENTS FOR THE POINT    4 (EQLBRM)

 CALCULATIONS STOPPED AFTER POINT  3(EQLBRM)





              THEORETICAL ROCKET PERFORMANCE ASSUMING EQUILIBRIUM

            COMPOSITION DURING EXPANSION FROM FINITE AREA COMBUSTOR

 Pin =   440.9 PSIA
 Ac/At =  4.0000      Pinj/Pinf =  1.000000
 CASE = _______________

             REACTANT                    WT FRACTION      ENERGY      TEMP
                                          (SEE NOTE)     KJ/KG-MOL      K  
 FUEL        RP-1                         1.0000000    -24717.700    298.150
 OXIDANT     O2(L)                        1.0000000    -12979.000     90.170

 O/F=    0.30000  %FUEL= 76.923077  R,EQ.RATIO=11.352221  PHI,EQ.RATIO=11.352221

                 INJECTOR  COMB END  THROAT
 Pinj/P            1.0000   1.0407   1.7944
 P, BAR            30.398   29.209   16.940
 T, K             1114.90  1112.39  1056.45
 RHO, KG/CU M    6.6953 0 6.4375 0 3.9646 0
 H, KJ/KG        -1454.03 -1454.03 -1693.94
 U, KJ/KG        -1908.04 -1907.77 -2121.23
 G, KJ/KG        -13019.5 -13011.5 -12670.2
 S, KJ/(KG)(K)    10.3736  10.3898  10.3898

 M, (1/n)          20.418   20.384   20.557
 MW, MOL WT        11.695   11.675   11.604
 (dLV/dLP)t      -1.12268 -1.12278 -1.12071
 (dLV/dLT)p        2.4276   2.4318   2.4663
 Cp, KJ/(KG)(K)   10.2678  10.3138  10.6891
 GAMMAs            1.1249   1.1250   1.1229
 SON VEL,M/SEC      714.6    714.5    692.7
 MACH NUMBER        0.000    0.000    1.000

 TRANSPORT PROPERTIES (GASES ONLY)
   CONDUCTIVITY IN UNITS OF MILLIWATTS/(CM)(K)

 VISC,MILLIPOISE  0.36831  0.00000      NaN

  WITH EQUILIBRIUM REACTIONS

 Cp, KJ/(KG)(K)   16.8402   0.0000  14.5070
 CONDUCTIVITY      9.4102   0.0000      NaN
 PRANDTL NUMBER    0.6591   0.0000      NaN

  WITH FROZEN REACTIONS

 Cp, KJ/(KG)(K)    3.8846   0.0000   4.0690
 CONDUCTIVITY      2.3821   0.0000      NaN
 PRANDTL NUMBER    0.6006   0.0000      NaN

 PERFORMANCE PARAMETERS

 Ae/At                     0.00000   1.0000
 CSTAR, M/SEC               1106.9   1106.9
 CF                         0.0000   0.6258
 Ivac, M/SEC             *********   1309.5
 Isp, M/SEC                    0.0    692.7


 MASS FRACTIONS

 CH4              0.18599  0.18477  0.18063
 *CO              0.15632  0.15643  0.13310
 *CO2             0.05862  0.05870  0.06570
 C2H4             0.00001  0.00001  0.00000
 C2H6             0.00007  0.00007  0.00004
 *H2              0.04896  0.04929  0.04929
 H2O              0.11131  0.11118  0.12045
 C(gr)            0.43871  0.43956  0.45078

  * THERMODYNAMIC PROPERTIES FITTED TO 20000.K

 NOTE. WEIGHT FRACTION OF FUEL IN TOTAL FUELS AND OF OXIDANT IN TOTAL OXIDANTS






 SINGULAR MATRIX, ITERATION  1  VARIABLE  4(EQLBRM)

 SINGULAR MATRIX, ITERATION  1  VARIABLE  4(EQLBRM)

  50 ITERATIONS DID NOT SATISFY CONVERGENCE
                REQUIREMENTS FOR THE POINT    4 (EQLBRM)

 TRY REMOVING CONDENSED SPECIES (EQLBRM)

  50 ITERATIONS DID NOT SATISFY CONVERGENCE
                REQUIREMENTS FOR THE POINT    4 (EQLBRM)

 CALCULATIONS STOPPED AFTER POINT  3(EQLBRM)





              THEORETICAL ROCKET PERFORMANCE ASSUMING EQUILIBRIUM

            COMPOSITION DURING EXPANSION FROM FINITE AREA COMBUSTOR

 Pin =   587.8 PSIA
 Ac/At =  4.0000      Pinj/Pinf =  1.000000
 CASE = _______________

             REACTANT                    WT FRACTION      ENERGY      TEMP
                                          (SEE NOTE)     KJ/KG-MOL      K  
 FUEL        RP-1                         1.0000000    -24717.700    298.150
 OXIDANT     O2(L)                        1.0000000    -12979.000     90.170

 O/F=    0.30000  %FUEL= 76.923077  R,EQ.RATIO=11.352221  PHI,EQ.RATIO=11.352221

                 INJECTOR  COMB END  THROAT
 Pinj/P            1.0000   1.0407   1.7943
 P, BAR            40.530   38.946   22.589
 T, K             1133.20  1130.64  1073.36
 RHO, KG/CU M    8.8907 0 8.5479 0 5.2639 0
 H, KJ/KG        -1454.03 -1454.03 -1694.91
 U, KJ/KG        -1909.90 -1909.65 -2124.04
 G, KJ/KG        -13077.3 -13069.3 -12721.7
 S, KJ/(KG)(K)    10.2571  10.2732  10.2732

 M, (1/n)          20.668   20.633   20.797
 MW, MOL WT        11.848   11.826   11.749
 (dLV/dLP)t      -1.12172 -1.12188 -1.11995
 (dLV/dLT)p        2.3955   2.4002   2.4363
 Cp, KJ/(KG)(K)    9.9336   9.9801  10.3535
 GAMMAs            1.1244   1.1245   1.1227
 SON VEL,M/SEC      716.0    715.8    694.1
 MACH NUMBER        0.000    0.000    1.000

 TRANSPORT PROPERTIES (GASES ONLY)
   CONDUCTIVITY IN UNITS OF MILLIWATTS/(CM)(K)

 VISC,MILLIPOISE  0.37213  0.00000      NaN

  WITH EQUILIBRIUM REACTIONS

 Cp, KJ/(KG)(K)   16.0841   0.0000  14.1603
 CONDUCTIVITY      9.1937   0.0000      NaN
 PRANDTL NUMBER    0.6510   0.0000      NaN

  WITH FROZEN REACTIONS

 Cp, KJ/(KG)(K)    3.8799   0.0000   4.0468
 CONDUCTIVITY      2.3750   0.0000      NaN
 PRANDTL NUMBER    0.6079   0.0000      NaN

 PERFORMANCE PARAMETERS

 Ae/At                     0.00000   1.0000
 CSTAR, M/SEC               1109.3   1109.3
 CF                         0.0000   0.6257
 Ivac, M/SEC             *********   1312.4
 Isp, M/SEC                    0.0    694.1


 MASS FRACTIONS

 CH4              0.19478  0.19356  0.18914
 *CO              0.15537  0.15552  0.13275
 *CO2             0.05820  0.05825  0.06499
 C2H4             0.00001  0.00001  0.00001
 C2H6             0.00010  0.00009  0.00006
 *H2              0.04664  0.04696  0.04706
 H2O              0.11227  0.11213  0.12126
 C(gr)            0.43263  0.43347  0.44474

  * THERMODYNAMIC PROPERTIES FITTED TO 20000.K

 NOTE. WEIGHT FRACTION OF FUEL IN TOTAL FUELS AND OF OXIDANT IN TOTAL OXIDANTS






 SINGULAR MATRIX, ITERATION  1  VARIABLE  4(EQLBRM)

 SINGULAR MATRIX, ITERATION  1  VARIABLE  4(EQLBRM)

  50 ITERATIONS DID NOT SATISFY CONVERGENCE
                REQUIREMENTS FOR THE POINT    4 (EQLBRM)

 TRY REMOVING CONDENSED SPECIES (EQLBRM)

 SINGULAR MATRIX, ITERATION  1  VARIABLE  4(EQLBRM)





              THEORETICAL ROCKET PERFORMANCE ASSUMING EQUILIBRIUM

            COMPOSITION DURING EXPANSION FROM FINITE AREA COMBUSTOR

 Pin =   734.8 PSIA
 Ac/At =  4.0000      Pinj/Pinf =  1.012601
 CASE = _______________

             REACTANT                    WT FRACTION      ENERGY      TEMP
                                          (SEE NOTE)     KJ/KG-MOL      K  
 FUEL        RP-1                         1.0000000    -24717.700    298.150
 OXIDANT     O2(L)                        1.0000000    -12979.000     90.170

 O/F=    0.30000  %FUEL= 76.923077  R,EQ.RATIO=11.352221  PHI,EQ.RATIO=11.352221

                 INJECTOR  COMB END  THROAT
 Pinj/P            1.0000   1.0257   1.7457
 P, BAR            50.663   49.394   29.022
 T, K             1147.56  1145.32  1088.29
 RHO, KG/CU M    1.1081 1 1.0820 1 6.7392 0
 H, KJ/KG        -1454.03 -1459.89 -1695.70
 U, KJ/KG        -1911.25 -1916.39 -2126.34
 G, KJ/KG        -13122.1 -13110.9 -12766.6
 S, KJ/(KG)(K)    10.1678  10.1728  10.1728

 M, (1/n)          20.868   20.860   21.012
 MW, MOL WT        11.969   11.960   11.878
 (dLV/dLP)t      -1.12070 -1.12073 -1.11896
 (dLV/dLT)p        2.3682   2.3709   2.4072
 Cp, KJ/(KG)(K)    9.6734   9.6979  10.0579
 GAMMAs            1.1240   1.1240   1.1223
 SON VEL,M/SEC      716.9    716.3    695.2
 MACH NUMBER        0.000    0.151    1.000

 TRANSPORT PROPERTIES (GASES ONLY)
   CONDUCTIVITY IN UNITS OF MILLIWATTS/(CM)(K)

 VISC,MILLIPOISE  0.37508  0.37459  0.36143

  WITH EQUILIBRIUM REACTIONS

 Cp, KJ/(KG)(K)   15.5073  15.5639  16.4941
 CONDUCTIVITY      9.0201   9.0345   9.1663
 PRANDTL NUMBER    0.6448   0.6453   0.6504

  WITH FROZEN REACTIONS

 Cp, KJ/(KG)(K)    3.8773   3.8768   3.8514
 CONDUCTIVITY      2.3699   2.3680   2.2802
 PRANDTL NUMBER    0.6136   0.6133   0.6105

 PERFORMANCE PARAMETERS

 Ae/At                      4.0000   1.0000
 CSTAR, M/SEC               1067.9   1067.9
 CF                         0.1014   0.6510
 Ivac, M/SEC                4325.3   1314.7
 Isp, M/SEC                  108.3    695.2


 MASS FRACTIONS

 CH4              0.20159  0.20109  0.19656
 *CO              0.15444  0.15397  0.13225
 *CO2             0.05797  0.05813  0.06449
 C2H4             0.00002  0.00002  0.00001
 C2H6             0.00012  0.00011  0.00007
 *H2              0.04484  0.04495  0.04511
 H2O              0.11305  0.11322  0.12198
 C(gr)            0.42797  0.42851  0.43952

  * THERMODYNAMIC PROPERTIES FITTED TO 20000.K

 NOTE. WEIGHT FRACTION OF FUEL IN TOTAL FUELS AND OF OXIDANT IN TOTAL OXIDANTS






 SINGULAR MATRIX, ITERATION  1  VARIABLE  4(EQLBRM)

  50 ITERATIONS DID NOT SATISFY CONVERGENCE
                REQUIREMENTS FOR THE POINT    4 (EQLBRM)

 TRY REMOVING CONDENSED SPECIES (EQLBRM)

 SINGULAR MATRIX, ITERATION  1  VARIABLE  4(EQLBRM)





              THEORETICAL ROCKET PERFORMANCE ASSUMING EQUILIBRIUM

            COMPOSITION DURING EXPANSION FROM FINITE AREA COMBUSTOR

 Pin =   881.8 PSIA
 Ac/At =  4.0000      Pinj/Pinf =  1.012596
 CASE = _______________

             REACTANT                    WT FRACTION      ENERGY      TEMP
                                          (SEE NOTE)     KJ/KG-MOL      K  
 FUEL        RP-1                         1.0000000    -24717.700    298.150
 OXIDANT     O2(L)                        1.0000000    -12979.000     90.170

 O/F=    0.30000  %FUEL= 76.923077  R,EQ.RATIO=11.352221  PHI,EQ.RATIO=11.352221

                 INJECTOR  COMB END  THROAT
 Pinj/P            1.0000   1.0257   1.7455
 P, BAR            60.795   59.274   34.830
 T, K             1159.39  1157.12  1099.27
 RHO, KG/CU M    1.3267 1 1.2955 1 8.0682 0
 H, KJ/KG        -1454.03 -1459.90 -1696.22
 U, KJ/KG        -1912.28 -1917.44 -2127.91
 G, KJ/KG        -13158.6 -13147.3 -12799.3
 S, KJ/(KG)(K)    10.0954  10.1004  10.1004

 M, (1/n)          21.036   21.028   21.172
 MW, MOL WT        12.069   12.060   11.974
 (dLV/dLP)t      -1.11968 -1.11973 -1.11806
 (dLV/dLT)p        2.3445   2.3473   2.3843
 Cp, KJ/(KG)(K)    9.4608   9.4852   9.8416
 GAMMAs            1.1235   1.1235   1.1221
 SON VEL,M/SEC      717.5    717.0    696.0
 MACH NUMBER        0.000    0.151    1.000

 TRANSPORT PROPERTIES (GASES ONLY)
   CONDUCTIVITY IN UNITS OF MILLIWATTS/(CM)(K)

 VISC,MILLIPOISE  0.37750  0.37700  0.36372

  WITH EQUILIBRIUM REACTIONS

 Cp, KJ/(KG)(K)   15.0433  15.0989  16.0108
 CONDUCTIVITY      8.8751   8.8896   9.0238
 PRANDTL NUMBER    0.6399   0.6403   0.6453

  WITH FROZEN REACTIONS

 Cp, KJ/(KG)(K)    3.8758   3.8753   3.8484
 CONDUCTIVITY      2.3661   2.3642   2.2757
 PRANDTL NUMBER    0.6184   0.6180   0.6151

 PERFORMANCE PARAMETERS

 Ae/At                      4.0000   1.0000
 CSTAR, M/SEC               1069.2   1069.2
 CF                         0.1013   0.6509
 Ivac, M/SEC                4330.7   1316.2
 Isp, M/SEC                  108.4    696.0


 MASS FRACTIONS

 CH4              0.20714  0.20664  0.20195
 *CO              0.15356  0.15310  0.13178
 *CO2             0.05785  0.05801  0.06420
 C2H4             0.00002  0.00002  0.00001
 C2H6             0.00014  0.00014  0.00009
 *H2              0.04336  0.04347  0.04369
 H2O              0.11372  0.11388  0.12253
 C(gr)            0.42421  0.42474  0.43575

  * THERMODYNAMIC PROPERTIES FITTED TO 20000.K

 NOTE. WEIGHT FRACTION OF FUEL IN TOTAL FUELS AND OF OXIDANT IN TOTAL OXIDANTS






 SINGULAR MATRIX, ITERATION  1  VARIABLE  4(EQLBRM)

  50 ITERATIONS DID NOT SATISFY CONVERGENCE
                REQUIREMENTS FOR THE POINT    4 (EQLBRM)

 TRY REMOVING CONDENSED SPECIES (EQLBRM)

 SINGULAR MATRIX, ITERATION  1  VARIABLE  4(EQLBRM)





              THEORETICAL ROCKET PERFORMANCE ASSUMING EQUILIBRIUM

            COMPOSITION DURING EXPANSION FROM FINITE AREA COMBUSTOR

 Pin =  1028.7 PSIA
 Ac/At =  4.0000      Pinj/Pinf =  1.012594
 CASE = _______________

             REACTANT                    WT FRACTION      ENERGY      TEMP
                                          (SEE NOTE)     KJ/KG-MOL      K  
 FUEL        RP-1                         1.0000000    -24717.700    298.150
 OXIDANT     O2(L)                        1.0000000    -12979.000     90.170

 O/F=    0.30000  %FUEL= 76.923077  R,EQ.RATIO=11.352221  PHI,EQ.RATIO=11.352221

                 INJECTOR  COMB END  THROAT
 Pinj/P            1.0000   1.0257   1.7453
 P, BAR            70.927   69.153   40.639
 T, K             1169.46  1167.17  1108.63
 RHO, KG/CU M    1.5450 1 1.5087 1 9.3953 0
 H, KJ/KG        -1454.03 -1459.91 -1696.64
 U, KJ/KG        -1913.11 -1918.28 -2129.18
 G, KJ/KG        -13189.2 -13177.8 -12826.8
 S, KJ/(KG)(K)    10.0347  10.0396  10.0396

 M, (1/n)          21.180   21.172   21.310
 MW, MOL WT        12.155   12.146   12.056
 (dLV/dLP)t      -1.11870 -1.11875 -1.11718
 (dLV/dLT)p        2.3235   2.3263   2.3639
 Cp, KJ/(KG)(K)    9.2816   9.3057   9.6585
 GAMMAs            1.1231   1.1231   1.1218
 SON VEL,M/SEC      718.1    717.5    696.6
 MACH NUMBER        0.000    0.151    1.000

 TRANSPORT PROPERTIES (GASES ONLY)
   CONDUCTIVITY IN UNITS OF MILLIWATTS/(CM)(K)

 VISC,MILLIPOISE  0.37953  0.37903  0.36566

  WITH EQUILIBRIUM REACTIONS

 Cp, KJ/(KG)(K)   14.6569  14.7114  15.6070
 CONDUCTIVITY      8.7504   8.7651   8.9010
 PRANDTL NUMBER    0.6357   0.6362   0.6411

  WITH FROZEN REACTIONS

 Cp, KJ/(KG)(K)    3.8751   3.8745   3.8463
 CONDUCTIVITY      2.3631   2.3611   2.2721
 PRANDTL NUMBER    0.6224   0.6220   0.6190

 PERFORMANCE PARAMETERS

 Ae/At                      4.0000   1.0000
 CSTAR, M/SEC               1070.3   1070.3
 CF                         0.1013   0.6508
 Ivac, M/SEC                4335.1   1317.5
 Isp, M/SEC                  108.4    696.6


 MASS FRACTIONS

 CH4              0.21182  0.21131  0.20650
 *CO              0.15271  0.15228  0.13129
 *CO2             0.05780  0.05795  0.06400
 C2H4             0.00002  0.00002  0.00001
 C2H6             0.00016  0.00016  0.00010
 *H2              0.04212  0.04223  0.04250
 H2O              0.11430  0.11446  0.12301
 C(gr)            0.42106  0.42159  0.43260

  * THERMODYNAMIC PROPERTIES FITTED TO 20000.K

 NOTE. WEIGHT FRACTION OF FUEL IN TOTAL FUELS AND OF OXIDANT IN TOTAL OXIDANTS






 SINGULAR MATRIX, ITERATION  1  VARIABLE  4(EQLBRM)

  50 ITERATIONS DID NOT SATISFY CONVERGENCE
                REQUIREMENTS FOR THE POINT    4 (EQLBRM)

 TRY REMOVING CONDENSED SPECIES (EQLBRM)

 SINGULAR MATRIX, ITERATION  1  VARIABLE  4(EQLBRM)





              THEORETICAL ROCKET PERFORMANCE ASSUMING EQUILIBRIUM

            COMPOSITION DURING EXPANSION FROM FINITE AREA COMBUSTOR

 Pin =  1175.7 PSIA
 Ac/At =  4.0000      Pinj/Pinf =  1.012591
 CASE = _______________

             REACTANT                    WT FRACTION      ENERGY      TEMP
                                          (SEE NOTE)     KJ/KG-MOL      K  
 FUEL        RP-1                         1.0000000    -24717.700    298.150
 OXIDANT     O2(L)                        1.0000000    -12979.000     90.170

 O/F=    0.30000  %FUEL= 76.923077  R,EQ.RATIO=11.352221  PHI,EQ.RATIO=11.352221

                 INJECTOR  COMB END  THROAT
 Pinj/P            1.0000   1.0257   1.7452
 P, BAR            81.060   79.032   46.449
 T, K             1178.21  1175.91  1116.77
 RHO, KG/CU M    1.7631 1 1.7217 1 1.0721 1
 H, KJ/KG        -1454.03 -1459.92 -1696.98
 U, KJ/KG        -1913.79 -1918.97 -2130.23
 G, KJ/KG        -13215.5 -13204.1 -12850.5
 S, KJ/(KG)(K)     9.9824   9.9873   9.9873

 M, (1/n)          21.308   21.299   21.432
 MW, MOL WT        12.230   12.221   12.128
 (dLV/dLP)t      -1.11775 -1.11782 -1.11632
 (dLV/dLT)p        2.3045   2.3074   2.3455
 Cp, KJ/(KG)(K)    9.1269   9.1508   9.5000
 GAMMAs            1.1227   1.1227   1.1215
 SON VEL,M/SEC      718.5    717.9    697.1
 MACH NUMBER        0.000    0.151    1.000

 TRANSPORT PROPERTIES (GASES ONLY)
   CONDUCTIVITY IN UNITS OF MILLIWATTS/(CM)(K)

 VISC,MILLIPOISE  0.38129  0.38079  0.36733

  WITH EQUILIBRIUM REACTIONS

 Cp, KJ/(KG)(K)   14.3266  14.3803  15.2612
 CONDUCTIVITY      8.6409   8.6558   8.7929
 PRANDTL NUMBER    0.6322   0.6326   0.6376

  WITH FROZEN REACTIONS

 Cp, KJ/(KG)(K)    3.8748   3.8741   3.8449
 CONDUCTIVITY      2.3607   2.3587   2.2691
 PRANDTL NUMBER    0.6258   0.6254   0.6224

 PERFORMANCE PARAMETERS

 Ae/At                      4.0000   1.0000
 CSTAR, M/SEC               1071.2   1071.2
 CF                         0.1013   0.6507
 Ivac, M/SEC                4338.7   1318.6
 Isp, M/SEC                  108.5    697.1


 MASS FRACTIONS

 CH4              0.21585  0.21535  0.21042
 *CO              0.15191  0.15149  0.13081
 *CO2             0.05779  0.05794  0.06386
 C2H4             0.00002  0.00002  0.00001
 C2H6             0.00018  0.00018  0.00011
 *H2              0.04104  0.04115  0.04146
 H2O              0.11482  0.11497  0.12343
 C(gr)            0.41837  0.41889  0.42989

  * THERMODYNAMIC PROPERTIES FITTED TO 20000.K

 NOTE. WEIGHT FRACTION OF FUEL IN TOTAL FUELS AND OF OXIDANT IN TOTAL OXIDANTS






 SINGULAR MATRIX, ITERATION  1  VARIABLE  4(EQLBRM)

  50 ITERATIONS DID NOT SATISFY CONVERGENCE
                REQUIREMENTS FOR THE POINT    4 (EQLBRM)

 TRY REMOVING CONDENSED SPECIES (EQLBRM)

  50 ITERATIONS DID NOT SATISFY CONVERGENCE
                REQUIREMENTS FOR THE POINT    4 (EQLBRM)

 CALCULATIONS STOPPED AFTER POINT  3(EQLBRM)





              THEORETICAL ROCKET PERFORMANCE ASSUMING EQUILIBRIUM

            COMPOSITION DURING EXPANSION FROM FINITE AREA COMBUSTOR

 Pin =  1322.6 PSIA
 Ac/At =  4.0000      Pinj/Pinf =  1.012591
 CASE = _______________

             REACTANT                    WT FRACTION      ENERGY      TEMP
                                          (SEE NOTE)     KJ/KG-MOL      K  
 FUEL        RP-1                         1.0000000    -24717.700    298.150
 OXIDANT     O2(L)                        1.0000000    -12979.000     90.170

 O/F=    0.30000  %FUEL= 76.923077  R,EQ.RATIO=11.352221  PHI,EQ.RATIO=11.352221

                 INJECTOR  COMB END  THROAT
 Pinj/P            1.0000   1.0407   1.7934
 P, BAR            91.192   87.628   50.848
 T, K             1185.97  1183.34  1122.31
 RHO, KG/CU M    1.9810 1 1.9044 1 1.1724 1
 H, KJ/KG        -1454.03 -1454.03 -1697.20
 U, KJ/KG        -1914.36 -1914.17 -2130.91
 G, KJ/KG        -13238.5 -13230.7 -12866.5
 S, KJ/(KG)(K)     9.9366   9.9521   9.9521

 M, (1/n)          21.421   21.383   21.515
 MW, MOL WT        12.297   12.274   12.177
 (dLV/dLP)t      -1.11685 -1.11716 -1.11570
 (dLV/dLT)p        2.2874   2.2932   2.3327
 Cp, KJ/(KG)(K)    8.9911   9.0370   9.3928
 GAMMAs            1.1224   1.1225   1.1213
 SON VEL,M/SEC      718.8    718.7    697.4
 MACH NUMBER        0.000    0.000    1.000

 TRANSPORT PROPERTIES (GASES ONLY)
   CONDUCTIVITY IN UNITS OF MILLIWATTS/(CM)(K)

 VISC,MILLIPOISE  0.38283  0.38079      NaN

  WITH EQUILIBRIUM REACTIONS

 Cp, KJ/(KG)(K)   14.0391  14.3803   6.0142
 CONDUCTIVITY      8.5434   8.6558      NaN
 PRANDTL NUMBER    0.6291   0.6326      NaN

  WITH FROZEN REACTIONS

 Cp, KJ/(KG)(K)    3.8748   3.8741   5.8054
 CONDUCTIVITY      2.3587   2.3587      NaN
 PRANDTL NUMBER    0.6289   0.6254      NaN

 PERFORMANCE PARAMETERS

 Ae/At                      4.0000   1.0000
 CSTAR, M/SEC               1101.5   1101.5
 CF                         0.0002   0.6331
 Ivac, M/SEC             1857529.8   1319.3
 Isp, M/SEC                    0.2    697.4


 MASS FRACTIONS

 CH4              0.21939  0.21819  0.21307
 *CO              0.15115  0.15141  0.13045
 *CO2             0.05782  0.05781  0.06378
 C2H4             0.00003  0.00003  0.00001
 C2H6             0.00020  0.00019  0.00012
 *H2              0.04010  0.04042  0.04076
 H2O              0.11529  0.11513  0.12372
 *O               0.00000  0.00000  0.00001
 C(gr)            0.41602  0.41682  0.42808

  * THERMODYNAMIC PROPERTIES FITTED TO 20000.K

 NOTE. WEIGHT FRACTION OF FUEL IN TOTAL FUELS AND OF OXIDANT IN TOTAL OXIDANTS






 SINGULAR MATRIX, ITERATION  1  VARIABLE  4(EQLBRM)

 SINGULAR MATRIX, ITERATION  1  VARIABLE  4(EQLBRM)

  50 ITERATIONS DID NOT SATISFY CONVERGENCE
                REQUIREMENTS FOR THE POINT    4 (EQLBRM)

 TRY REMOVING CONDENSED SPECIES (EQLBRM)

 SINGULAR MATRIX, ITERATION  1  VARIABLE  4(EQLBRM)





              THEORETICAL ROCKET PERFORMANCE ASSUMING EQUILIBRIUM

            COMPOSITION DURING EXPANSION FROM FINITE AREA COMBUSTOR

 Pin =  1469.6 PSIA
 Ac/At =  4.0000      Pinj/Pinf =  1.012588
 CASE = _______________

             REACTANT                    WT FRACTION      ENERGY      TEMP
                                          (SEE NOTE)     KJ/KG-MOL      K  
 FUEL        RP-1                         1.0000000    -24717.700    298.150
 OXIDANT     O2(L)                        1.0000000    -12979.000     90.170

 O/F=    0.30000  %FUEL= 76.923077  R,EQ.RATIO=11.352221  PHI,EQ.RATIO=11.352221

                 INJECTOR  COMB END  THROAT
 Pinj/P            1.0000   1.0256   1.7448
 P, BAR            101.33   98.792   58.071
 T, K             1192.92  1190.58  1130.47
 RHO, KG/CU M    2.1988 1 2.1471 1 1.3369 1
 H, KJ/KG        -1454.03 -1459.93 -1697.50
 U, KJ/KG        -1914.84 -1920.04 -2131.87
 G, KJ/KG        -13258.9 -13247.5 -12889.8
 S, KJ/(KG)(K)     9.8958   9.9006   9.9006

 M, (1/n)          21.524   21.514   21.639
 MW, MOL WT        12.357   12.347   12.250
 (dLV/dLP)t      -1.11599 -1.11607 -1.11472
 (dLV/dLT)p        2.2716   2.2746   2.3134
 Cp, KJ/(KG)(K)    8.8702   8.8938   9.2359
 GAMMAs            1.1220   1.1220   1.1210
 SON VEL,M/SEC      719.0    718.5    697.8
 MACH NUMBER        0.000    0.151    1.000

 TRANSPORT PROPERTIES (GASES ONLY)
   CONDUCTIVITY IN UNITS OF MILLIWATTS/(CM)(K)

 VISC,MILLIPOISE  0.38421  0.38371  0.37013

  WITH EQUILIBRIUM REACTIONS

 Cp, KJ/(KG)(K)   13.7850  13.8371  14.6923
 CONDUCTIVITY      8.4554   8.4704   8.6092
 PRANDTL NUMBER    0.6264   0.6268   0.6317

  WITH FROZEN REACTIONS

 Cp, KJ/(KG)(K)    3.8750   3.8742   3.8432
 CONDUCTIVITY      2.3570   2.3550   2.2646
 PRANDTL NUMBER    0.6317   0.6313   0.6281

 PERFORMANCE PARAMETERS

 Ae/At                      4.0000   1.0000
 CSTAR, M/SEC               1072.6   1072.6
 CF                         0.1013   0.6505
 Ivac, M/SEC                4344.6   1320.3
 Isp, M/SEC                  108.6    697.8


 MASS FRACTIONS

 CH4              0.22254  0.22204  0.21695
 *CO              0.15042  0.15002  0.12987
 *CO2             0.05786  0.05799  0.06370
 C2H4             0.00003  0.00003  0.00001
 C2H6             0.00022  0.00021  0.00014
 *H2              0.03925  0.03936  0.03973
 H2O              0.11573  0.11587  0.12416
 C(gr)            0.41395  0.41446  0.42543

  * THERMODYNAMIC PROPERTIES FITTED TO 20000.K

 NOTE. WEIGHT FRACTION OF FUEL IN TOTAL FUELS AND OF OXIDANT IN TOTAL OXIDANTS






 SINGULAR MATRIX, ITERATION  1  VARIABLE  4(EQLBRM)

  50 ITERATIONS DID NOT SATISFY CONVERGENCE
                REQUIREMENTS FOR THE POINT    4 (EQLBRM)

 TRY REMOVING CONDENSED SPECIES (EQLBRM)

  50 ITERATIONS DID NOT SATISFY CONVERGENCE
                REQUIREMENTS FOR THE POINT    4 (EQLBRM)

 CALCULATIONS STOPPED AFTER POINT  3(EQLBRM)





              THEORETICAL ROCKET PERFORMANCE ASSUMING EQUILIBRIUM

            COMPOSITION DURING EXPANSION FROM FINITE AREA COMBUSTOR

 Pin =   147.0 PSIA
 Ac/At =  4.0000      Pinj/Pinf =  1.012588
 CASE = _______________

             REACTANT                    WT FRACTION      ENERGY      TEMP
                                          (SEE NOTE)     KJ/KG-MOL      K  
 FUEL        RP-1                         1.0000000    -24717.700    298.150
 OXIDANT     O2(L)                        1.0000000    -12979.000     90.170

 O/F=    0.40000  %FUEL= 71.428571  R,EQ.RATIO= 8.514166  PHI,EQ.RATIO= 8.514166

                 INJECTOR  COMB END  THROAT
 Pinj/P            1.0000   1.0407   1.7976
 P, BAR            10.133   9.7365   5.6367
 T, K             1104.26  1101.77  1047.00
 RHO, KG/CU M    2.0168 0 1.9397 0 1.1963 0
 H, KJ/KG        -1379.14 -1379.14 -1644.96
 U, KJ/KG        -1881.56 -1881.11 -2116.15
 G, KJ/KG        -13936.5 -13928.2 -13570.1
 S, KJ/(KG)(K)    11.3717  11.3899  11.3899

 M, (1/n)          18.275   18.250   18.475
 MW, MOL WT        11.378   11.361   11.308
 (dLV/dLP)t      -1.11714 -1.11681 -1.11681
 (dLV/dLT)p        2.4544   2.4542   2.5304
 Cp, KJ/(KG)(K)   11.6574  11.6909  12.5006
 GAMMAs            1.1338   1.1337   1.1283
 SON VEL,M/SEC      754.7    754.4    729.1
 MACH NUMBER        0.000    0.000    1.000

 TRANSPORT PROPERTIES (GASES ONLY)
   CONDUCTIVITY IN UNITS OF MILLIWATTS/(CM)(K)

 VISC,MILLIPOISE  0.38342  0.38371      NaN

  WITH EQUILIBRIUM REACTIONS

 Cp, KJ/(KG)(K)   17.7780  13.8371   9.9331
 CONDUCTIVITY      9.8289   8.4704      NaN
 PRANDTL NUMBER    0.6935   0.6268      NaN

  WITH FROZEN REACTIONS

 Cp, KJ/(KG)(K)    3.5089   3.8742   3.9874
 CONDUCTIVITY      2.4917   2.3550      NaN
 PRANDTL NUMBER    0.5399   0.6313      NaN

 PERFORMANCE PARAMETERS

 Ae/At                      4.0000   1.0000
 CSTAR, M/SEC               1147.2   1147.2
 CF                         0.0001   0.6356
 Ivac, M/SEC             5669128.8   1375.4
 Isp, M/SEC                    0.1    729.1


 MASS FRACTIONS

 CH4              0.10465  0.10360  0.10027
 *CO              0.27782  0.27801  0.24501
 *CO2             0.06589  0.06602  0.07929
 C2H6             0.00002  0.00002  0.00001
 *H2              0.06418  0.06447  0.06415
 H2O              0.08909  0.08886  0.09921
 C(gr)            0.39836  0.39903  0.41205

  * THERMODYNAMIC PROPERTIES FITTED TO 20000.K

 NOTE. WEIGHT FRACTION OF FUEL IN TOTAL FUELS AND OF OXIDANT IN TOTAL OXIDANTS






 SINGULAR MATRIX, ITERATION  1  VARIABLE  4(EQLBRM)

 SINGULAR MATRIX, ITERATION  1  VARIABLE  4(EQLBRM)

  50 ITERATIONS DID NOT SATISFY CONVERGENCE
                REQUIREMENTS FOR THE POINT    4 (EQLBRM)

 TRY REMOVING CONDENSED SPECIES (EQLBRM)

  50 ITERATIONS DID NOT SATISFY CONVERGENCE
                REQUIREMENTS FOR THE POINT    4 (EQLBRM)

 CALCULATIONS STOPPED AFTER POINT  3(EQLBRM)





              THEORETICAL ROCKET PERFORMANCE ASSUMING EQUILIBRIUM

            COMPOSITION DURING EXPANSION FROM FINITE AREA COMBUSTOR

 Pin =   293.9 PSIA
 Ac/At =  4.0000      Pinj/Pinf =  1.012588
 CASE = _______________

             REACTANT                    WT FRACTION      ENERGY      TEMP
                                          (SEE NOTE)     KJ/KG-MOL      K  
 FUEL        RP-1                         1.0000000    -24717.700    298.150
 OXIDANT     O2(L)                        1.0000000    -12979.000     90.170

 O/F=    0.40000  %FUEL= 71.428571  R,EQ.RATIO= 8.514166  PHI,EQ.RATIO= 8.514166

                 INJECTOR  COMB END  THROAT
 Pinj/P            1.0000   1.0407   1.7984
 P, BAR            20.265   19.473   11.269
 T, K             1149.14  1146.49  1087.94
 RHO, KG/CU M    3.9746 0 3.8223 0 2.3575 0
 H, KJ/KG        -1379.14 -1379.14 -1649.08
 U, KJ/KG        -1889.01 -1888.60 -2127.07
 G, KJ/KG        -14088.9 -14079.8 -13701.2
 S, KJ/(KG)(K)    11.0602  11.0779  11.0779

 M, (1/n)          18.739   18.711   18.924
 MW, MOL WT        11.693   11.674   11.606
 (dLV/dLP)t      -1.12186 -1.12164 -1.12159
 (dLV/dLT)p        2.4451   2.4463   2.5235
 Cp, KJ/(KG)(K)   11.0339  11.0717  11.8447
 GAMMAs            1.1345   1.1345   1.1294
 SON VEL,M/SEC      760.6    760.2    734.8
 MACH NUMBER        0.000    0.000    1.000

 TRANSPORT PROPERTIES (GASES ONLY)
   CONDUCTIVITY IN UNITS OF MILLIWATTS/(CM)(K)

 VISC,MILLIPOISE  0.39332  0.38371      NaN

  WITH EQUILIBRIUM REACTIONS

 Cp, KJ/(KG)(K)   16.5399  13.8371  13.8683
 CONDUCTIVITY      9.6474   8.4704      NaN
 PRANDTL NUMBER    0.6743   0.6268      NaN

  WITH FROZEN REACTIONS

 Cp, KJ/(KG)(K)    3.5049   3.8742   3.6834
 CONDUCTIVITY      2.4834   2.3550      NaN
 PRANDTL NUMBER    0.5551   0.6313      NaN

 PERFORMANCE PARAMETERS

 Ae/At                      4.0000   1.0000
 CSTAR, M/SEC               1155.4   1155.4
 CF                         0.0000   0.6359
 Ivac, M/SEC             *********   1385.3
 Isp, M/SEC                    0.0    734.8


 MASS FRACTIONS

 CH4              0.12363  0.12250  0.11848
 *CO              0.27416  0.27439  0.24267
 *CO2             0.06403  0.06411  0.07639
 C2H4             0.00001  0.00001  0.00000
 C2H6             0.00003  0.00003  0.00002
 *H2              0.05897  0.05928  0.05913
 H2O              0.09296  0.09274  0.10310
 C(gr)            0.38621  0.38693  0.40021

  * THERMODYNAMIC PROPERTIES FITTED TO 20000.K

 NOTE. WEIGHT FRACTION OF FUEL IN TOTAL FUELS AND OF OXIDANT IN TOTAL OXIDANTS






 SINGULAR MATRIX, ITERATION  1  VARIABLE  4(EQLBRM)

 SINGULAR MATRIX, ITERATION  1  VARIABLE  4(EQLBRM)

  50 ITERATIONS DID NOT SATISFY CONVERGENCE
                REQUIREMENTS FOR THE POINT    4 (EQLBRM)

 TRY REMOVING CONDENSED SPECIES (EQLBRM)

 SINGULAR MATRIX, ITERATION  1  VARIABLE  4(EQLBRM)

 SINGULAR MATRIX, ITERATION  1  VARIABLE  4(EQLBRM)

  50 ITERATIONS DID NOT SATISFY CONVERGENCE
                REQUIREMENTS FOR THE POINT    4 (EQLBRM)

 TRY REMOVING CONDENSED SPECIES (EQLBRM)





              THEORETICAL ROCKET PERFORMANCE ASSUMING EQUILIBRIUM

            COMPOSITION DURING EXPANSION FROM FINITE AREA COMBUSTOR

 Pin =   440.9 PSIA
 Ac/At =  4.0000      Pinj/Pinf =  1.012671
 CASE = _______________

             REACTANT                    WT FRACTION      ENERGY      TEMP
                                          (SEE NOTE)     KJ/KG-MOL      K  
 FUEL        RP-1                         1.0000000    -24717.700    298.150
 OXIDANT     O2(L)                        1.0000000    -12979.000     90.170

 O/F=    0.40000  %FUEL= 71.428571  R,EQ.RATIO= 8.514166  PHI,EQ.RATIO= 8.514166

                 INJECTOR  COMB END  THROAT
 Pinj/P            1.0000   1.0258   1.7503
 P, BAR            30.398   29.632   17.368
 T, K             1176.68  1174.30  1114.83
 RHO, KG/CU M    5.9148 0 5.7761 0 3.6031 0
 H, KJ/KG        -1379.14 -1385.77 -1651.45
 U, KJ/KG        -1893.07 -1898.79 -2133.46
 G, KJ/KG        -14183.5 -14170.7 -13788.8
 S, KJ/(KG)(K)    10.8817  10.8872  10.8872

 M, (1/n)          19.037   19.032   19.230
 MW, MOL WT        11.895   11.887   11.810
 (dLV/dLP)t      -1.12366 -1.12363 -1.12357
 (dLV/dLT)p        2.4292   2.4319   2.5074
 Cp, KJ/(KG)(K)   10.6385  10.6700  11.3966
 GAMMAs            1.1346   1.1345   1.1299
 SON VEL,M/SEC      763.6    762.9    738.0
 MACH NUMBER        0.000    0.151    1.000

 TRANSPORT PROPERTIES (GASES ONLY)
   CONDUCTIVITY IN UNITS OF MILLIWATTS/(CM)(K)

 VISC,MILLIPOISE  0.39924  0.39872  0.38522

  WITH EQUILIBRIUM REACTIONS

 Cp, KJ/(KG)(K)   15.7526  15.8141  17.2882
 CONDUCTIVITY      9.4869   9.5036   9.9241
 PRANDTL NUMBER    0.6629   0.6635   0.6711

  WITH FROZEN REACTIONS

 Cp, KJ/(KG)(K)    3.5049   3.5046   3.4926
 CONDUCTIVITY      2.4779   2.4759   2.3917
 PRANDTL NUMBER    0.5647   0.5644   0.5625

 PERFORMANCE PARAMETERS

 Ae/At                      4.0000   1.0000
 CSTAR, M/SEC               1128.9   1128.9
 CF                         0.1019   0.6537
 Ivac, M/SEC                4572.8   1391.1
 Isp, M/SEC                  115.1    738.0


 MASS FRACTIONS

 CH4              0.13525  0.13478  0.13041
 *CO              0.27160  0.27097  0.24085
 *CO2             0.06330  0.06359  0.07498
 C2H4             0.00001  0.00001  0.00001
 C2H6             0.00005  0.00005  0.00003
 *H2              0.05579  0.05589  0.05587
 H2O              0.09520  0.09537  0.10541
 C(gr)            0.37878  0.37933  0.39243

  * THERMODYNAMIC PROPERTIES FITTED TO 20000.K

 NOTE. WEIGHT FRACTION OF FUEL IN TOTAL FUELS AND OF OXIDANT IN TOTAL OXIDANTS






 SINGULAR MATRIX, ITERATION  1  VARIABLE  4(EQLBRM)

 SINGULAR MATRIX, ITERATION  1  VARIABLE  4(EQLBRM)

  50 ITERATIONS DID NOT SATISFY CONVERGENCE
                REQUIREMENTS FOR THE POINT    4 (EQLBRM)

 TRY REMOVING CONDENSED SPECIES (EQLBRM)

 SINGULAR MATRIX, ITERATION  1  VARIABLE  4(EQLBRM)

 SINGULAR MATRIX, ITERATION  1  VARIABLE  4(EQLBRM)

  50 ITERATIONS DID NOT SATISFY CONVERGENCE
                REQUIREMENTS FOR THE POINT    4 (EQLBRM)

 TRY REMOVING CONDENSED SPECIES (EQLBRM)





              THEORETICAL ROCKET PERFORMANCE ASSUMING EQUILIBRIUM

            COMPOSITION DURING EXPANSION FROM FINITE AREA COMBUSTOR

 Pin =   587.8 PSIA
 Ac/At =  4.0000      Pinj/Pinf =  1.012671
 CASE = _______________

             REACTANT                    WT FRACTION      ENERGY      TEMP
                                          (SEE NOTE)     KJ/KG-MOL      K  
 FUEL        RP-1                         1.0000000    -24717.700    298.150
 OXIDANT     O2(L)                        1.0000000    -12979.000     90.170

 O/F=    0.40000  %FUEL= 71.428571  R,EQ.RATIO= 8.514166  PHI,EQ.RATIO= 8.514166

                 INJECTOR  COMB END  THROAT
 Pinj/P            1.0000   1.0258   1.7503
 P, BAR            40.530   39.510   23.155
 T, K             1196.77  1194.33  1133.24
 RHO, KG/CU M    7.8448 0 7.6608 0 4.7786 0
 H, KJ/KG        -1379.14 -1385.80 -1652.92
 U, KJ/KG        -1895.79 -1901.55 -2137.48
 G, KJ/KG        -14252.5 -14239.5 -13849.2
 S, KJ/(KG)(K)    10.7568  10.7623  10.7623

 M, (1/n)          19.260   19.254   19.445
 MW, MOL WT        12.046   12.037   11.953
 (dLV/dLP)t      -1.12446 -1.12445 -1.12441
 (dLV/dLT)p        2.4133   2.4161   2.4916
 Cp, KJ/(KG)(K)   10.3476  10.3788  11.0858
 GAMMAs            1.1344   1.1343   1.1300
 SON VEL,M/SEC      765.6    764.9    740.0
 MACH NUMBER        0.000    0.151    1.000

 TRANSPORT PROPERTIES (GASES ONLY)
   CONDUCTIVITY IN UNITS OF MILLIWATTS/(CM)(K)

 VISC,MILLIPOISE  0.40349  0.40296  0.38920

  WITH EQUILIBRIUM REACTIONS

 Cp, KJ/(KG)(K)   15.1773  15.2380  16.6631
 CONDUCTIVITY      9.3519   9.3693   9.7856
 PRANDTL NUMBER    0.6548   0.6554   0.6627

  WITH FROZEN REACTIONS

 Cp, KJ/(KG)(K)    3.5061   3.5056   3.4914
 CONDUCTIVITY      2.4740   2.4720   2.3863
 PRANDTL NUMBER    0.5718   0.5715   0.5694

 PERFORMANCE PARAMETERS

 Ae/At                      4.0000   1.0000
 CSTAR, M/SEC               1131.9   1131.9
 CF                         0.1019   0.6538
 Ivac, M/SEC                4584.8   1394.8
 Isp, M/SEC                  115.4    740.0


 MASS FRACTIONS

 CH4              0.14368  0.14319  0.13852
 *CO              0.26954  0.26893  0.23944
 *CO2             0.06296  0.06323  0.07424
 C2H4             0.00002  0.00002  0.00001
 C2H6             0.00007  0.00007  0.00004
 *H2              0.05349  0.05360  0.05366
 H2O              0.09680  0.09697  0.10693
 C(gr)            0.37343  0.37398  0.38715

  * THERMODYNAMIC PROPERTIES FITTED TO 20000.K

 NOTE. WEIGHT FRACTION OF FUEL IN TOTAL FUELS AND OF OXIDANT IN TOTAL OXIDANTS






 SINGULAR MATRIX, ITERATION  1  VARIABLE  4(EQLBRM)

 SINGULAR MATRIX, ITERATION  1  VARIABLE  4(EQLBRM)

  50 ITERATIONS DID NOT SATISFY CONVERGENCE
                REQUIREMENTS FOR THE POINT    4 (EQLBRM)

 TRY REMOVING CONDENSED SPECIES (EQLBRM)

 SINGULAR MATRIX, ITERATION  1  VARIABLE  4(EQLBRM)

 SINGULAR MATRIX, ITERATION  1  VARIABLE  4(EQLBRM)

  50 ITERATIONS DID NOT SATISFY CONVERGENCE
                REQUIREMENTS FOR THE POINT    4 (EQLBRM)

 TRY REMOVING CONDENSED SPECIES (EQLBRM)





              THEORETICAL ROCKET PERFORMANCE ASSUMING EQUILIBRIUM

            COMPOSITION DURING EXPANSION FROM FINITE AREA COMBUSTOR

 Pin =   734.8 PSIA
 Ac/At =  4.0000      Pinj/Pinf =  1.012671
 CASE = _______________

             REACTANT                    WT FRACTION      ENERGY      TEMP
                                          (SEE NOTE)     KJ/KG-MOL      K  
 FUEL        RP-1                         1.0000000    -24717.700    298.150
 OXIDANT     O2(L)                        1.0000000    -12979.000     90.170

 O/F=    0.40000  %FUEL= 71.428571  R,EQ.RATIO= 8.514166  PHI,EQ.RATIO= 8.514166

                 INJECTOR  COMB END  THROAT
 Pinj/P            1.0000   1.0258   1.7504
 P, BAR            50.663   49.387   28.944
 T, K             1212.64  1210.15  1147.81
 RHO, KG/CU M    9.7680 0 9.5388 0 5.9498 0
 H, KJ/KG        -1379.14 -1385.83 -1654.00
 U, KJ/KG        -1897.80 -1903.58 -2140.47
 G, KJ/KG        -14307.0 -14293.7 -13896.9
 S, KJ/(KG)(K)    10.6609  10.6663  10.6663

 M, (1/n)          19.440   19.434   19.618
 MW, MOL WT        12.168   12.158   12.068
 (dLV/dLP)t      -1.12480 -1.12481 -1.12479
 (dLV/dLT)p        2.3983   2.4012   2.4766
 Cp, KJ/(KG)(K)   10.1175  10.1484  10.8390
 GAMMAs            1.1342   1.1341   1.1300
 SON VEL,M/SEC      767.0    766.3    741.4
 MACH NUMBER        0.000    0.151    1.000

 TRANSPORT PROPERTIES (GASES ONLY)
   CONDUCTIVITY IN UNITS OF MILLIWATTS/(CM)(K)

 VISC,MILLIPOISE  0.40681  0.40628  0.39232

  WITH EQUILIBRIUM REACTIONS

 Cp, KJ/(KG)(K)   14.7256  14.7854  16.1703
 CONDUCTIVITY      9.2365   9.2541   9.6662
 PRANDTL NUMBER    0.6486   0.6491   0.6563

  WITH FROZEN REACTIONS

 Cp, KJ/(KG)(K)    3.5077   3.5071   3.4912
 CONDUCTIVITY      2.4711   2.4690   2.3823
 PRANDTL NUMBER    0.5775   0.5771   0.5749

 PERFORMANCE PARAMETERS

 Ae/At                      4.0000   1.0000
 CSTAR, M/SEC               1134.1   1134.1
 CF                         0.1019   0.6538
 Ivac, M/SEC                4593.9   1397.6
 Isp, M/SEC                  115.6    741.4


 MASS FRACTIONS

 CH4              0.15030  0.14980  0.14490
 *CO              0.26777  0.26718  0.23821
 *CO2             0.06281  0.06307  0.07377
 C2H4             0.00002  0.00002  0.00001
 C2H6             0.00009  0.00008  0.00005
 *H2              0.05168  0.05179  0.05193
 H2O              0.09806  0.09823  0.10811
 C(gr)            0.36926  0.36981  0.38302

  * THERMODYNAMIC PROPERTIES FITTED TO 20000.K

 NOTE. WEIGHT FRACTION OF FUEL IN TOTAL FUELS AND OF OXIDANT IN TOTAL OXIDANTS






 SINGULAR MATRIX, ITERATION  1  VARIABLE  4(EQLBRM)

 SINGULAR MATRIX, ITERATION  1  VARIABLE  4(EQLBRM)

  50 ITERATIONS DID NOT SATISFY CONVERGENCE
                REQUIREMENTS FOR THE POINT    4 (EQLBRM)

 TRY REMOVING CONDENSED SPECIES (EQLBRM)

 SINGULAR MATRIX, ITERATION  1  VARIABLE  4(EQLBRM)

 SINGULAR MATRIX, ITERATION  1  VARIABLE  4(EQLBRM)

  50 ITERATIONS DID NOT SATISFY CONVERGENCE
                REQUIREMENTS FOR THE POINT    4 (EQLBRM)

 TRY REMOVING CONDENSED SPECIES (EQLBRM)





              THEORETICAL ROCKET PERFORMANCE ASSUMING EQUILIBRIUM

            COMPOSITION DURING EXPANSION FROM FINITE AREA COMBUSTOR

 Pin =   881.8 PSIA
 Ac/At =  4.0000      Pinj/Pinf =  1.012670
 CASE = _______________

             REACTANT                    WT FRACTION      ENERGY      TEMP
                                          (SEE NOTE)     KJ/KG-MOL      K  
 FUEL        RP-1                         1.0000000    -24717.700    298.150
 OXIDANT     O2(L)                        1.0000000    -12979.000     90.170

 O/F=    0.40000  %FUEL= 71.428571  R,EQ.RATIO= 8.514166  PHI,EQ.RATIO= 8.514166

                 INJECTOR  COMB END  THROAT
 Pinj/P            1.0000   1.0258   1.7503
 P, BAR            60.795   59.265   34.733
 T, K             1225.79  1223.26  1159.90
 RHO, KG/CU M    1.1686 1 1.1412 1 7.1177 0
 H, KJ/KG        -1379.14 -1385.85 -1654.84
 U, KJ/KG        -1899.37 -1905.18 -2142.82
 G, KJ/KG        -14351.9 -14338.5 -13936.5
 S, KJ/(KG)(K)    10.5832  10.5886  10.5886

 M, (1/n)          19.591   19.585   19.763
 MW, MOL WT        12.269   12.260   12.164
 (dLV/dLP)t      -1.12490 -1.12491 -1.12492
 (dLV/dLT)p        2.3843   2.3874   2.4627
 Cp, KJ/(KG)(K)    9.9273   9.9579  10.6344
 GAMMAs            1.1340   1.1339   1.1300
 SON VEL,M/SEC      768.1    767.4    742.6
 MACH NUMBER        0.000    0.151    1.000

 TRANSPORT PROPERTIES (GASES ONLY)
   CONDUCTIVITY IN UNITS OF MILLIWATTS/(CM)(K)

 VISC,MILLIPOISE  0.40954  0.40900  0.39488

  WITH EQUILIBRIUM REACTIONS

 Cp, KJ/(KG)(K)   14.3548  14.4137  15.7645
 CONDUCTIVITY      9.1357   9.1536   9.5615
 PRANDTL NUMBER    0.6435   0.6440   0.6511

  WITH FROZEN REACTIONS

 Cp, KJ/(KG)(K)    3.5094   3.5089   3.4915
 CONDUCTIVITY      2.4687   2.4667   2.3791
 PRANDTL NUMBER    0.5822   0.5818   0.5795

 PERFORMANCE PARAMETERS

 Ae/At                      4.0000   1.0000
 CSTAR, M/SEC               1135.9   1135.9
 CF                         0.1019   0.6537
 Ivac, M/SEC                4601.0   1399.7
 Isp, M/SEC                  115.8    742.6


 MASS FRACTIONS

 CH4              0.15574  0.15524  0.15015
 *CO              0.26621  0.26564  0.23710
 *CO2             0.06277  0.06301  0.07346
 C2H4             0.00003  0.00003  0.00001
 C2H6             0.00010  0.00010  0.00006
 *H2              0.05019  0.05030  0.05050
 H2O              0.09910  0.09927  0.10907
 C(gr)            0.36584  0.36640  0.37964

  * THERMODYNAMIC PROPERTIES FITTED TO 20000.K

 NOTE. WEIGHT FRACTION OF FUEL IN TOTAL FUELS AND OF OXIDANT IN TOTAL OXIDANTS






 SINGULAR MATRIX, ITERATION  1  VARIABLE  4(EQLBRM)

 SINGULAR MATRIX, ITERATION  1  VARIABLE  4(EQLBRM)

  50 ITERATIONS DID NOT SATISFY CONVERGENCE
                REQUIREMENTS FOR THE POINT    4 (EQLBRM)

 TRY REMOVING CONDENSED SPECIES (EQLBRM)

  50 ITERATIONS DID NOT SATISFY CONVERGENCE
                REQUIREMENTS FOR THE POINT    4 (EQLBRM)

 CALCULATIONS STOPPED AFTER POINT  3(EQLBRM)





              THEORETICAL ROCKET PERFORMANCE ASSUMING EQUILIBRIUM

            COMPOSITION DURING EXPANSION FROM FINITE AREA COMBUSTOR

 Pin =  1028.7 PSIA
 Ac/At =  4.0000      Pinj/Pinf =  1.012670
 CASE = _______________

             REACTANT                    WT FRACTION      ENERGY      TEMP
                                          (SEE NOTE)     KJ/KG-MOL      K  
 FUEL        RP-1                         1.0000000    -24717.700    298.150
 OXIDANT     O2(L)                        1.0000000    -12979.000     90.170

 O/F=    0.40000  %FUEL= 71.428571  R,EQ.RATIO= 8.514166  PHI,EQ.RATIO= 8.514166

                 INJECTOR  COMB END  THROAT
 Pinj/P            1.0000   1.0407   1.7987
 P, BAR            70.927   68.155   39.432
 T, K             1237.02  1234.11  1168.39
 RHO, KG/CU M    1.3601 1 1.3077 1 8.0638 0
 H, KJ/KG        -1379.14 -1379.14 -1655.40
 U, KJ/KG        -1900.65 -1900.32 -2144.40
 G, KJ/KG        -14390.2 -14380.3 -13964.3
 S, KJ/(KG)(K)    10.5180  10.5349  10.5349

 M, (1/n)          19.722   19.688   19.866
 MW, MOL WT        12.357   12.334   12.233
 (dLV/dLP)t      -1.12484 -1.12487 -1.12492
 (dLV/dLT)p        2.3714   2.3749   2.4521
 Cp, KJ/(KG)(K)    9.7653   9.8073  10.4908
 GAMMAs            1.1337   1.1338   1.1299
 SON VEL,M/SEC      768.9    768.7    743.3
 MACH NUMBER        0.000    0.000    1.000

 TRANSPORT PROPERTIES (GASES ONLY)
   CONDUCTIVITY IN UNITS OF MILLIWATTS/(CM)(K)

[...]
 *CO2             0.28647  0.28681  0.30701
 COOH             0.00002  0.00002  0.00001
 *H               0.00144  0.00144  0.00126
 HCO              0.00002  0.00002  0.00001
 HO2              0.00014  0.00013  0.00009
 *H2              0.00637  0.00637  0.00610
 H2O              0.24185  0.24195  0.24973
 H2O2             0.00002  0.00002  0.00001
 *O               0.01213  0.01210  0.00968
 *OH              0.05274  0.05260  0.04553
 *O2              0.03950  0.03945  0.03432

  * THERMODYNAMIC PROPERTIES FITTED TO 20000.K

 NOTE. WEIGHT FRACTION OF FUEL IN TOTAL FUELS AND OF OXIDANT IN TOTAL OXIDANTS










              THEORETICAL ROCKET PERFORMANCE ASSUMING EQUILIBRIUM

            COMPOSITION DURING EXPANSION FROM FINITE AREA COMBUSTOR

 Pin =   587.8 PSIA
 Ac/At =  4.0000      Pinj/Pinf =  1.012654
 CASE = _______________

             REACTANT                    WT FRACTION      ENERGY      TEMP
                                          (SEE NOTE)     KJ/KG-MOL      K  
 FUEL        RP-1                         1.0000000    -24717.700    298.150
 OXIDANT     O2(L)                        1.0000000    -12979.000     90.170

 O/F=    2.70000  %FUEL= 27.027027  R,EQ.RATIO= 1.261358  PHI,EQ.RATIO= 1.261358

                 INJECTOR  COMB END  THROAT
 Pinj/P            1.0000   1.0258   1.7493
 P, BAR            40.530   39.511   23.170
 T, K             3606.14  3600.13  3434.13
 RHO, KG/CU M    3.1966 0 3.1221 0 1.9469 0
 H, KJ/KG         -773.97  -790.29 -1445.33
 U, KJ/KG        -2041.87 -2055.84 -2635.43
 G, KJ/KG        -41714.7 -41678.6 -40448.4
 S, KJ/(KG)(K)    11.3530  11.3575  11.3575

 M, (1/n)          23.648   23.652   23.992
 MW, MOL WT        23.648   23.652   23.992
 (dLV/dLP)t      -1.04794 -1.04790 -1.04314
 (dLV/dLT)p        1.8374   1.8380   1.7938
 Cp, KJ/(KG)(K)    7.2015   7.2130   7.1114
 GAMMAs            1.1324   1.1322   1.1282
 SON VEL,M/SEC     1198.2   1197.0   1158.8
 MACH NUMBER        0.000    0.151    1.000

 TRANSPORT PROPERTIES (GASES ONLY)
   CONDUCTIVITY IN UNITS OF MILLIWATTS/(CM)(K)

 VISC,MILLIPOISE   1.1175   1.1162   1.0818

  WITH EQUILIBRIUM REACTIONS

 Cp, KJ/(KG)(K)    7.2015   7.2130   7.1114
 CONDUCTIVITY     16.1981  16.2083  15.3275
 PRANDTL NUMBER    0.4968   0.4967   0.5019

  WITH FROZEN REACTIONS

 Cp, KJ/(KG)(K)    2.0117   2.0114   2.0041
 CONDUCTIVITY      3.4564   3.4515   3.3094
 PRANDTL NUMBER    0.6504   0.6505   0.6551

 PERFORMANCE PARAMETERS

 Ae/At                      4.0000   1.0000
 CSTAR, M/SEC               1774.1   1774.1
 CF                         0.1018   0.6531
 Ivac, M/SEC                7186.4   2185.8
 Isp, M/SEC                  180.6   1158.8


 MASS FRACTIONS

 *CO              0.35710  0.35689  0.34405
 *CO2             0.28991  0.29025  0.31044
 COOH             0.00003  0.00003  0.00002
 *H               0.00136  0.00136  0.00118
 HCO              0.00002  0.00002  0.00001
 HO2              0.00015  0.00015  0.00010
 *H2              0.00627  0.00627  0.00600
 H2O              0.24399  0.24409  0.25179
 H2O2             0.00002  0.00002  0.00001
 *O               0.01136  0.01134  0.00903
 *OH              0.05190  0.05176  0.04466
 *O2              0.03789  0.03784  0.03271

  * THERMODYNAMIC PROPERTIES FITTED TO 20000.K

 NOTE. WEIGHT FRACTION OF FUEL IN TOTAL FUELS AND OF OXIDANT IN TOTAL OXIDANTS










              THEORETICAL ROCKET PERFORMANCE ASSUMING EQUILIBRIUM

            COMPOSITION DURING EXPANSION FROM FINITE AREA COMBUSTOR

 Pin =   734.8 PSIA
 Ac/At =  4.0000      Pinj/Pinf =  1.012663
 CASE = _______________

             REACTANT                    WT FRACTION      ENERGY      TEMP
                                          (SEE NOTE)     KJ/KG-MOL      K  
 FUEL        RP-1                         1.0000000    -24717.700    298.150
 OXIDANT     O2(L)                        1.0000000    -12979.000     90.170

 O/F=    2.70000  %FUEL= 27.027027  R,EQ.RATIO= 1.261358  PHI,EQ.RATIO= 1.261358

                 INJECTOR  COMB END  THROAT
 Pinj/P            1.0000   1.0258   1.7500
 P, BAR            50.663   49.388   28.950
 T, K             3639.10  3632.99  3463.12
 RHO, KG/CU M    3.9718 0 3.8791 0 2.4192 0
 H, KJ/KG         -773.97  -790.40 -1449.73
 U, KJ/KG        -2049.54 -2063.60 -2646.38
 G, KJ/KG        -41803.8 -41767.3 -40510.7
 S, KJ/(KG)(K)    11.2747  11.2791  11.2791

 M, (1/n)          23.721   23.725   24.062
 MW, MOL WT        23.721   23.725   24.062
 (dLV/dLP)t      -1.04671 -1.04667 -1.04191
 (dLV/dLT)p        1.8096   1.8102   1.7657
 Cp, KJ/(KG)(K)    6.9773   6.9884   6.8839
 GAMMAs            1.1335   1.1333   1.1294
 SON VEL,M/SEC     1202.4   1201.2   1162.5
 MACH NUMBER        0.000    0.151    1.000

 TRANSPORT PROPERTIES (GASES ONLY)
   CONDUCTIVITY IN UNITS OF MILLIWATTS/(CM)(K)

 VISC,MILLIPOISE   1.1253   1.1239   1.0888

  WITH EQUILIBRIUM REACTIONS

 Cp, KJ/(KG)(K)    6.9773   6.9884   6.8839
 CONDUCTIVITY     15.6782  15.6879  14.8143
 PRANDTL NUMBER    0.5008   0.5007   0.5059

  WITH FROZEN REACTIONS

 Cp, KJ/(KG)(K)    2.0138   2.0135   2.0061
 CONDUCTIVITY      3.4799   3.4749   3.3306
 PRANDTL NUMBER    0.6512   0.6512   0.6558

 PERFORMANCE PARAMETERS

 Ae/At                      4.0000   1.0000
 CSTAR, M/SEC               1778.8   1778.8
 CF                         0.1019   0.6535
 Ivac, M/SEC                7205.4   2191.9
 Isp, M/SEC                  181.3   1162.5


 MASS FRACTIONS

 *CO              0.35532  0.35512  0.34229
 *CO2             0.29270  0.29302  0.31320
 COOH             0.00003  0.00003  0.00002
 *H               0.00129  0.00129  0.00112
 HCO              0.00003  0.00002  0.00001
 HO2              0.00016  0.00016  0.00010
 *H2              0.00619  0.00618  0.00592
 H2O              0.24567  0.24577  0.25340
 H2O2             0.00002  0.00002  0.00001
 *O               0.01078  0.01076  0.00853
 *OH              0.05119  0.05105  0.04393
 *O2              0.03662  0.03657  0.03146

  * THERMODYNAMIC PROPERTIES FITTED TO 20000.K

 NOTE. WEIGHT FRACTION OF FUEL IN TOTAL FUELS AND OF OXIDANT IN TOTAL OXIDANTS










              THEORETICAL ROCKET PERFORMANCE ASSUMING EQUILIBRIUM

            COMPOSITION DURING EXPANSION FROM FINITE AREA COMBUSTOR

 Pin =   881.8 PSIA
 Ac/At =  4.0000      Pinj/Pinf =  1.012671
 CASE = _______________

             REACTANT                    WT FRACTION      ENERGY      TEMP
                                          (SEE NOTE)     KJ/KG-MOL      K  
 FUEL        RP-1                         1.0000000    -24717.700    298.150
 OXIDANT     O2(L)                        1.0000000    -12979.000     90.170

 O/F=    2.70000  %FUEL= 27.027027  R,EQ.RATIO= 1.261358  PHI,EQ.RATIO= 1.261358

                 INJECTOR  COMB END  THROAT
 Pinj/P            1.0000   1.0258   1.7506
 P, BAR            60.795   59.265   34.728
 T, K             3666.12  3659.92  3486.82
 RHO, KG/CU M    4.7429 0 4.6322 0 2.8892 0
 H, KJ/KG         -773.97  -790.49 -1453.31
 U, KJ/KG        -2055.77 -2069.91 -2655.28
 G, KJ/KG        -41874.5 -41837.5 -40559.1
 S, KJ/(KG)(K)    11.2109  11.2153  11.2153

 M, (1/n)          23.781   23.785   24.120
 MW, MOL WT        23.781   23.785   24.120
 (dLV/dLP)t      -1.04571 -1.04566 -1.04090
 (dLV/dLT)p        1.7871   1.7877   1.7429
 Cp, KJ/(KG)(K)    6.7989   6.8097   6.7026
 GAMMAs            1.1345   1.1343   1.1304
 SON VEL,M/SEC     1205.9   1204.7   1165.6
 MACH NUMBER        0.000    0.151    1.000

 TRANSPORT PROPERTIES (GASES ONLY)
   CONDUCTIVITY IN UNITS OF MILLIWATTS/(CM)(K)

 VISC,MILLIPOISE   1.1316   1.1303   1.0946

  WITH EQUILIBRIUM REACTIONS

 Cp, KJ/(KG)(K)    6.7989   6.8097   6.7026
 CONDUCTIVITY     15.2632  15.2724  14.4047
 PRANDTL NUMBER    0.5041   0.5040   0.5093

  WITH FROZEN REACTIONS

 Cp, KJ/(KG)(K)    2.0154   2.0151   2.0077
 CONDUCTIVITY      3.4991   3.4942   3.3480
 PRANDTL NUMBER    0.6518   0.6519   0.6564

 PERFORMANCE PARAMETERS

 Ae/At                      4.0000   1.0000
 CSTAR, M/SEC               1782.6   1782.6
 CF                         0.1020   0.6539
 Ivac, M/SEC                7220.9   2196.8
 Isp, M/SEC                  181.8   1165.6


 MASS FRACTIONS

 *CO              0.35383  0.35362  0.34082
 *CO2             0.29504  0.29536  0.31551
 COOH             0.00004  0.00004  0.00002
 *H               0.00124  0.00124  0.00108
 HCO              0.00003  0.00003  0.00002
 HO2              0.00017  0.00017  0.00011
 *H2              0.00612  0.00612  0.00586
 H2O              0.24705  0.24715  0.25471
 H2O2             0.00002  0.00002  0.00001
 *O               0.01032  0.01029  0.00812
 *OH              0.05058  0.05044  0.04331
 *O2              0.03556  0.03552  0.03043

  * THERMODYNAMIC PROPERTIES FITTED TO 20000.K

 NOTE. WEIGHT FRACTION OF FUEL IN TOTAL FUELS AND OF OXIDANT IN TOTAL OXIDANTS










              THEORETICAL ROCKET PERFORMANCE ASSUMING EQUILIBRIUM

            COMPOSITION DURING EXPANSION FROM FINITE AREA COMBUSTOR

 Pin =  1028.7 PSIA
 Ac/At =  4.0000      Pinj/Pinf =  1.012678
 CASE = _______________

             REACTANT                    WT FRACTION      ENERGY      TEMP
                                          (SEE NOTE)     KJ/KG-MOL      K  
 FUEL        RP-1                         1.0000000    -24717.700    298.150
 OXIDANT     O2(L)                        1.0000000    -12979.000     90.170

 O/F=    2.70000  %FUEL= 27.027027  R,EQ.RATIO= 1.261358  PHI,EQ.RATIO= 1.261358

                 INJECTOR  COMB END  THROAT
 Pinj/P            1.0000   1.0258   1.7511
 P, BAR            70.927   69.141   40.504
 T, K             3689.02  3682.74  3506.87
 RHO, KG/CU M    5.5109 0 5.3821 0 3.3573 0
 H, KJ/KG         -773.97  -790.57 -1456.33
 U, KJ/KG        -2061.02 -2075.21 -2662.77
 G, KJ/KG        -41932.5 -41895.3 -40598.1
 S, KJ/(KG)(K)    11.1570  11.1614  11.1614

 M, (1/n)          23.832   23.835   24.169
 MW, MOL WT        23.832   23.835   24.169
 (dLV/dLP)t      -1.04485 -1.04481 -1.04004
 (dLV/dLT)p        1.7682   1.7688   1.7238
 Cp, KJ/(KG)(K)    6.6514   6.6618   6.5525
 GAMMAs            1.1353   1.1351   1.1312
 SON VEL,M/SEC     1208.8   1207.6   1168.2
 MACH NUMBER        0.000    0.151    1.000

 TRANSPORT PROPERTIES (GASES ONLY)
   CONDUCTIVITY IN UNITS OF MILLIWATTS/(CM)(K)

 VISC,MILLIPOISE   1.1371   1.1357   1.0994

  WITH EQUILIBRIUM REACTIONS

 Cp, KJ/(KG)(K)    6.6514   6.6618   6.5525
 CONDUCTIVITY     14.9191  14.9280  14.0652
 PRANDTL NUMBER    0.5069   0.5068   0.5122

  WITH FROZEN REACTIONS

 Cp, KJ/(KG)(K)    2.0169   2.0166   2.0090
 CONDUCTIVITY      3.5155   3.5105   3.3628
 PRANDTL NUMBER    0.6523   0.6524   0.6568

 PERFORMANCE PARAMETERS

 Ae/At                      4.0000   1.0000
 CSTAR, M/SEC               1785.8   1785.8
 CF                         0.1020   0.6542
 Ivac, M/SEC                7233.8   2200.9
 Isp, M/SEC                  182.2   1168.2


 MASS FRACTIONS

 *CO              0.35253  0.35233  0.33955
 *CO2             0.29707  0.29738  0.31750
 COOH             0.00004  0.00004  0.00002
 *H               0.00119  0.00119  0.00104
 HCO              0.00003  0.00003  0.00002
 HO2              0.00018  0.00018  0.00011
 *H2              0.00606  0.00606  0.00580
 HCOOH            0.00001  0.00001  0.00000
 H2O              0.24823  0.24832  0.25583
 H2O2             0.00003  0.00003  0.00002
 *O               0.00993  0.00990  0.00779
 *OH              0.05004  0.04990  0.04276
 *O2              0.03467  0.03462  0.02955

  * THERMODYNAMIC PROPERTIES FITTED TO 20000.K

 NOTE. WEIGHT FRACTION OF FUEL IN TOTAL FUELS AND OF OXIDANT IN TOTAL OXIDANTS










              THEORETICAL ROCKET PERFORMANCE ASSUMING EQUILIBRIUM

            COMPOSITION DURING EXPANSION FROM FINITE AREA COMBUSTOR

 Pin =  1175.7 PSIA
 Ac/At =  4.0000      Pinj/Pinf =  1.012683
 CASE = _______________

             REACTANT                    WT FRACTION      ENERGY      TEMP
                                          (SEE NOTE)     KJ/KG-MOL      K  
 FUEL        RP-1                         1.0000000    -24717.700    298.150
 OXIDANT     O2(L)                        1.0000000    -12979.000     90.170

 O/F=    2.70000  %FUEL= 27.027027  R,EQ.RATIO= 1.261358  PHI,EQ.RATIO= 1.261358

                 INJECTOR  COMB END  THROAT
 Pinj/P            1.0000   1.0258   1.7516
 P, BAR            81.060   79.018   46.278
 T, K             3708.88  3702.54  3524.23
 RHO, KG/CU M    6.2760 0 6.1294 0 3.8237 0
 H, KJ/KG         -773.97  -790.63 -1458.94
 U, KJ/KG        -2065.55 -2079.79 -2669.23
 G, KJ/KG        -41981.5 -41943.9 -40630.4
 S, KJ/(KG)(K)    11.1105  11.1149  11.1149

 M, (1/n)          23.876   23.880   24.211
 MW, MOL WT        23.876   23.880   24.211
 (dLV/dLP)t      -1.04411 -1.04407 -1.03930
 (dLV/dLT)p        1.7520   1.7526   1.7074
 Cp, KJ/(KG)(K)    6.5259   6.5361   6.4247
 GAMMAs            1.1360   1.1358   1.1319
 SON VEL,M/SEC     1211.3   1210.0   1170.4
 MACH NUMBER        0.000    0.151    1.000

 TRANSPORT PROPERTIES (GASES ONLY)
   CONDUCTIVITY IN UNITS OF MILLIWATTS/(CM)(K)

 VISC,MILLIPOISE   1.1418   1.1404   1.1036

  WITH EQUILIBRIUM REACTIONS

 Cp, KJ/(KG)(K)    6.5259   6.5361   6.4247
 CONDUCTIVITY     14.6260  14.6346  13.7761
 PRANDTL NUMBER    0.5094   0.5093   0.5147

  WITH FROZEN REACTIONS

 Cp, KJ/(KG)(K)    2.0181   2.0178   2.0102
 CONDUCTIVITY      3.5298   3.5247   3.3757
 PRANDTL NUMBER    0.6528   0.6528   0.6572

 PERFORMANCE PARAMETERS

 Ae/At                      4.0000   1.0000
 CSTAR, M/SEC               1788.5   1788.5
 CF                         0.1021   0.6544
 Ivac, M/SEC                7244.9   2204.5
 Isp, M/SEC                  182.5   1170.4


 MASS FRACTIONS

 *CO              0.35138  0.35118  0.33843
 *CO2             0.29886  0.29917  0.31925
 COOH             0.00005  0.00004  0.00003
 *H               0.00116  0.00116  0.00100
 HCO              0.00003  0.00003  0.00002
 HO2              0.00019  0.00019  0.00012
 *H2              0.00601  0.00601  0.00576
 HCOOH            0.00001  0.00001  0.00000
 H2O              0.24925  0.24934  0.25680
 H2O2             0.00003  0.00003  0.00002
 *O               0.00959  0.00957  0.00751
 *OH              0.04955  0.04942  0.04227
 *O2              0.03389  0.03384  0.02879

  * THERMODYNAMIC PROPERTIES FITTED TO 20000.K

 NOTE. WEIGHT FRACTION OF FUEL IN TOTAL FUELS AND OF OXIDANT IN TOTAL OXIDANTS










              THEORETICAL ROCKET PERFORMANCE ASSUMING EQUILIBRIUM

            COMPOSITION DURING EXPANSION FROM FINITE AREA COMBUSTOR

 Pin =  1322.6 PSIA
 Ac/At =  4.0000      Pinj/Pinf =  1.012688
 CASE = _______________

             REACTANT                    WT FRACTION      ENERGY      TEMP
                                          (SEE NOTE)     KJ/KG-MOL      K  
 FUEL        RP-1                         1.0000000    -24717.700    298.150
 OXIDANT     O2(L)                        1.0000000    -12979.000     90.170

 O/F=    2.70000  %FUEL= 27.027027  R,EQ.RATIO= 1.261358  PHI,EQ.RATIO= 1.261358

                 INJECTOR  COMB END  THROAT
 Pinj/P            1.0000   1.0259   1.7520
 P, BAR            91.192   88.894   52.051
 T, K             3726.42  3720.02  3539.53
 RHO, KG/CU M    7.0389 0 6.8744 0 4.2887 0
 H, KJ/KG         -773.97  -790.69 -1461.23
 U, KJ/KG        -2069.53 -2083.81 -2674.90
 G, KJ/KG        -42023.6 -41985.8 -40657.7
 S, KJ/(KG)(K)    11.0695  11.0739  11.0739

 M, (1/n)          23.915   23.919   24.248
 MW, MOL WT        23.915   23.919   24.248
 (dLV/dLP)t      -1.04345 -1.04341 -1.03864
 (dLV/dLT)p        1.7378   1.7383   1.6930
 Cp, KJ/(KG)(K)    6.4171   6.4270   6.3138
 GAMMAs            1.1366   1.1364   1.1325
 SON VEL,M/SEC     1213.5   1212.2   1172.4
 MACH NUMBER        0.000    0.151    1.000

 TRANSPORT PROPERTIES (GASES ONLY)
   CONDUCTIVITY IN UNITS OF MILLIWATTS/(CM)(K)

 VISC,MILLIPOISE   1.1459   1.1445   1.1074

  WITH EQUILIBRIUM REACTIONS

 Cp, KJ/(KG)(K)    6.4171   6.4270   6.3138
 CONDUCTIVITY     14.3714  14.3797  13.5250
 PRANDTL NUMBER    0.5117   0.5116   0.5169

  WITH FROZEN REACTIONS

 Cp, KJ/(KG)(K)    2.0192   2.0189   2.0112
 CONDUCTIVITY      3.5423   3.5372   3.3870
 PRANDTL NUMBER    0.6532   0.6532   0.6576

 PERFORMANCE PARAMETERS

 Ae/At                      4.0000   1.0000
 CSTAR, M/SEC               1790.9   1790.9
 CF                         0.1021   0.6546
 Ivac, M/SEC                7254.7   2207.6
 Isp, M/SEC                  182.9   1172.4


 MASS FRACTIONS

 *CO              0.35035  0.35015  0.33743
 *CO2             0.30047  0.30078  0.32082
 COOH             0.00005  0.00005  0.00003
 *H               0.00113  0.00112  0.00098
 HCO              0.00004  0.00004  0.00002
 HO2              0.00020  0.00019  0.00012
 *H2              0.00597  0.00597  0.00572
 HCOOH            0.00001  0.00001  0.00000
 H2O              0.25016  0.25025  0.25766
 H2O2             0.00003  0.00003  0.00002
 *O               0.00930  0.00928  0.00726
 *OH              0.04910  0.04898  0.04182
 *O2              0.03320  0.03315  0.02812

  * THERMODYNAMIC PROPERTIES FITTED TO 20000.K

 NOTE. WEIGHT FRACTION OF FUEL IN TOTAL FUELS AND OF OXIDANT IN TOTAL OXIDANTS










              THEORETICAL ROCKET PERFORMANCE ASSUMING EQUILIBRIUM

            COMPOSITION DURING EXPANSION FROM FINITE AREA COMBUSTOR

 Pin =  1469.6 PSIA
 Ac/At =  4.0000      Pinj/Pinf =  1.012693
 CASE = _______________

             REACTANT                    WT FRACTION      ENERGY      TEMP
                                          (SEE NOTE)     KJ/KG-MOL      K  
 FUEL        RP-1                         1.0000000    -24717.700    298.150
 OXIDANT     O2(L)                        1.0000000    -12979.000     90.170

 O/F=    2.70000  %FUEL= 27.027027  R,EQ.RATIO= 1.261358  PHI,EQ.RATIO= 1.261358

                 INJECTOR  COMB END  THROAT
 Pinj/P            1.0000   1.0259   1.7524
 P, BAR            101.33   98.770   57.822
 T, K             3742.12  3735.66  3553.21
 RHO, KG/CU M    7.7996 0 7.6173 0 4.7525 0
 H, KJ/KG         -773.97  -790.74 -1463.28
 U, KJ/KG        -2073.07 -2087.40 -2679.95
 G, KJ/KG        -42060.4 -42022.4 -40681.1
 S, KJ/(KG)(K)    11.0329  11.0373  11.0373

 M, (1/n)          23.950   23.954   24.282
 MW, MOL WT        23.950   23.954   24.282
 (dLV/dLP)t      -1.04286 -1.04282 -1.03805
 (dLV/dLT)p        1.7251   1.7257   1.6802
 Cp, KJ/(KG)(K)    6.3211   6.3309   6.2160
 GAMMAs            1.1371   1.1369   1.1331
 SON VEL,M/SEC     1215.4   1214.2   1174.1
 MACH NUMBER        0.000    0.151    1.000

 TRANSPORT PROPERTIES (GASES ONLY)
   CONDUCTIVITY IN UNITS OF MILLIWATTS/(CM)(K)

 VISC,MILLIPOISE   1.1496   1.1482   1.1107

  WITH EQUILIBRIUM REACTIONS

 Cp, KJ/(KG)(K)    6.3211   6.3309   6.2160
 CONDUCTIVITY     14.1467  14.1547  13.3034
 PRANDTL NUMBER    0.5137   0.5136   0.5190

  WITH FROZEN REACTIONS

 Cp, KJ/(KG)(K)    2.0202   2.0198   2.0121
 CONDUCTIVITY      3.5536   3.5485   3.3972
 PRANDTL NUMBER    0.6535   0.6536   0.6579

 PERFORMANCE PARAMETERS

 Ae/At                      4.0000   1.0000
 CSTAR, M/SEC               1793.1   1793.1
 CF                         0.1021   0.6548
 Ivac, M/SEC                7263.4   2210.4
 Isp, M/SEC                  183.1   1174.1


 MASS FRACTIONS

 *CO              0.34942  0.34922  0.33652
 *CO2             0.30193  0.30224  0.32224
 COOH             0.00005  0.00005  0.00003
 *H               0.00110  0.00110  0.00095
 HCO              0.00004  0.00004  0.00002
 HO2              0.00020  0.00020  0.00013
 *H2              0.00593  0.00593  0.00568
 HCOOH            0.00001  0.00001  0.00000
 H2O              0.25097  0.25106  0.25843
 H2O2             0.00003  0.00003  0.00002
 *O               0.00904  0.00902  0.00704
 *OH              0.04870  0.04857  0.04142
 *O2              0.03258  0.03253  0.02752

  * THERMODYNAMIC PROPERTIES FITTED TO 20000.K

 NOTE. WEIGHT FRACTION OF FUEL IN TOTAL FUELS AND OF OXIDANT IN TOTAL OXIDANTS



